version 2
run General-0-20131117-15:55:24-90346
attr configname General
attr datetime 20131117-15:55:24
attr experiment General
attr inifile omnetpp.ini
attr iterationvars ""
attr iterationvars2 $repetition=0
attr measurement ""
attr network LothianBusNet
attr processid 90346
attr repetition 0
attr replication #0
attr resultdir results
attr runnumber 0
attr seedset 0

scalar LothianBusNet.ap[0].ethg$o[0].channel 	throughput:last 	nan
attr source  sumPerDuration(packetBits(messageSent))
attr unit  bps
scalar LothianBusNet.ap[1].ethg$o[0].channel 	throughput:last 	nan
attr source  sumPerDuration(packetBits(messageSent))
attr unit  bps
scalar LothianBusNet.ap[2].ethg$o[0].channel 	throughput:last 	nan
attr source  sumPerDuration(packetBits(messageSent))
attr unit  bps
scalar LothianBusNet.ap[3].ethg$o[0].channel 	throughput:last 	nan
attr source  sumPerDuration(packetBits(messageSent))
attr unit  bps
scalar LothianBusNet.ap[4].ethg$o[0].channel 	throughput:last 	nan
attr source  sumPerDuration(packetBits(messageSent))
attr unit  bps
scalar LothianBusNet.ap[5].ethg$o[0].channel 	throughput:last 	nan
attr source  sumPerDuration(packetBits(messageSent))
attr unit  bps
scalar LothianBusNet.ap[6].ethg$o[0].channel 	throughput:last 	nan
attr source  sumPerDuration(packetBits(messageSent))
attr unit  bps
scalar LothianBusNet.ap[7].ethg$o[0].channel 	throughput:last 	nan
attr source  sumPerDuration(packetBits(messageSent))
attr unit  bps
scalar LothianBusNet.ap[8].ethg$o[0].channel 	throughput:last 	nan
attr source  sumPerDuration(packetBits(messageSent))
attr unit  bps
scalar LothianBusNet.ap[9].ethg$o[0].channel 	throughput:last 	nan
attr source  sumPerDuration(packetBits(messageSent))
attr unit  bps
scalar LothianBusNet.sink.ethg$o[0].channel 	throughput:last 	nan
attr source  sumPerDuration(packetBits(messageSent))
attr unit  bps
scalar LothianBusNet.router.ethg$o[0].channel 	throughput:last 	nan
attr source  sumPerDuration(packetBits(messageSent))
attr unit  bps
scalar LothianBusNet.router.ethg$o[1].channel 	throughput:last 	nan
attr source  sumPerDuration(packetBits(messageSent))
attr unit  bps
scalar LothianBusNet.router.ethg$o[2].channel 	throughput:last 	nan
attr source  sumPerDuration(packetBits(messageSent))
attr unit  bps
scalar LothianBusNet.router.ethg$o[3].channel 	throughput:last 	nan
attr source  sumPerDuration(packetBits(messageSent))
attr unit  bps
scalar LothianBusNet.router.ethg$o[4].channel 	throughput:last 	nan
attr source  sumPerDuration(packetBits(messageSent))
attr unit  bps
scalar LothianBusNet.router.ethg$o[5].channel 	throughput:last 	nan
attr source  sumPerDuration(packetBits(messageSent))
attr unit  bps
scalar LothianBusNet.router.ethg$o[6].channel 	throughput:last 	nan
attr source  sumPerDuration(packetBits(messageSent))
attr unit  bps
scalar LothianBusNet.router.ethg$o[7].channel 	throughput:last 	nan
attr source  sumPerDuration(packetBits(messageSent))
attr unit  bps
scalar LothianBusNet.router.ethg$o[8].channel 	throughput:last 	nan
attr source  sumPerDuration(packetBits(messageSent))
attr unit  bps
scalar LothianBusNet.router.ethg$o[9].channel 	throughput:last 	nan
attr source  sumPerDuration(packetBits(messageSent))
attr unit  bps
scalar LothianBusNet.router.ethg$o[10].channel 	throughput:last 	nan
attr source  sumPerDuration(packetBits(messageSent))
attr unit  bps
scalar LothianBusNet.ap[0].relayUnit 	"processed frames" 	0
scalar LothianBusNet.ap[0].relayUnit 	"dropped frames" 	0
scalar LothianBusNet.ap[0].relayUnit 	droppedBytes:count 	0
attr title  "Dropped bytes, count"
scalar LothianBusNet.ap[0].relayUnit 	droppedBytes:sum 	0
attr title  "Dropped bytes, sum"
scalar LothianBusNet.ap[0].relayUnit 	processedBytes:count 	0
attr title  "Processed bytes, count"
scalar LothianBusNet.ap[0].relayUnit 	processedBytes:sum 	0
attr title  "Processed bytes, sum"
scalar LothianBusNet.ap[0].relayUnit 	usedBufferBytes:max 	nan
attr title  "Used buffer bytes, max"
scalar LothianBusNet.ap[0].relayUnit 	usedBufferBytes:timeavg 	nan
attr title  "Used buffer bytes, timeavg"
scalar LothianBusNet.ap[0].wlan[0].mgmt 	dropPkByQueue:count 	0
attr interpolationmode  none
attr source  dropPkByQueue
attr title  "packets dropped by queue, count"
scalar LothianBusNet.ap[0].wlan[0].mgmt 	dropPkByQueue:sum(packetBytes) 	0
attr interpolationmode  none
attr source  dropPkByQueue
attr title  "packets dropped by queue, sum(packetBytes)"
scalar LothianBusNet.ap[0].wlan[0].mgmt 	dataQueueLen:max 	0
attr interpolationmode  sample-hold
attr title  "data queue length, max"
scalar LothianBusNet.ap[0].wlan[0].mgmt 	dataQueueLen:timeavg 	0
attr interpolationmode  sample-hold
attr title  "data queue length, timeavg"
scalar LothianBusNet.ap[0].wlan[0].mac 	"number of received packets" 	0
scalar LothianBusNet.ap[0].wlan[0].mac 	"number of collisions" 	0
scalar LothianBusNet.ap[0].wlan[0].mac 	"number of internal collisions" 	0
scalar LothianBusNet.ap[0].wlan[0].mac 	"number of retry for AC 0" 	0
scalar LothianBusNet.ap[0].wlan[0].mac 	"sent and received bits" 	670800
scalar LothianBusNet.ap[0].wlan[0].mac 	"sent packet within AC 0" 	0
scalar LothianBusNet.ap[0].wlan[0].mac 	"sent in TXOP " 	0
scalar LothianBusNet.ap[0].wlan[0].mac 	"sentWithoutRetry AC 0" 	0
scalar LothianBusNet.ap[0].wlan[0].mac 	"numGivenUp AC 0" 	0
scalar LothianBusNet.ap[0].wlan[0].mac 	"numDropped AC 0" 	0
scalar LothianBusNet.ap[0].wlan[0].mac 	rcvdPkFromLL:count 	0
attr interpolationmode  none
attr source  packetReceivedFromLower
attr title  "packets received from lower layer, count"
scalar LothianBusNet.ap[0].wlan[0].mac 	rcvdPkFromLL:sum(packetBytes) 	0
attr interpolationmode  none
attr source  packetReceivedFromLower
attr title  "packets received from lower layer, sum(packetBytes)"
scalar LothianBusNet.ap[0].wlan[0].mac 	rcvdPkFromHL:count 	1075
attr interpolationmode  none
attr source  packetReceivedFromUpper
attr title  "packets received from higher layer, count"
scalar LothianBusNet.ap[0].wlan[0].mac 	rcvdPkFromHL:sum(packetBytes) 	83850
attr interpolationmode  none
attr source  packetReceivedFromUpper
attr title  "packets received from higher layer, sum(packetBytes)"
scalar LothianBusNet.ap[0].wlan[0].mac 	sentDownPk:count 	1075
attr interpolationmode  none
attr source  packetSentToLower
attr title  "packets sent to lower layer, count"
scalar LothianBusNet.ap[0].wlan[0].mac 	sentDownPk:sum(packetBytes) 	83850
attr interpolationmode  none
attr source  packetSentToLower
attr title  "packets sent to lower layer, sum(packetBytes)"
scalar LothianBusNet.ap[0].wlan[0].mac 	passedUpPk:count 	0
attr interpolationmode  none
attr source  packetSentToUpper
attr title  "packets passed to higher layer, count"
scalar LothianBusNet.ap[0].wlan[0].mac 	passedUpPk:sum(packetBytes) 	0
attr interpolationmode  none
attr source  packetSentToUpper
attr title  "packets passed to higher layer, sum(packetBytes)"
scalar LothianBusNet.ap[0].wlan[0].radio 	lossRate:min 	nan
attr interpolationmode  backward-sample-hold
attr title  "packet loss rate, min"
scalar LothianBusNet.ap[0].wlan[0].radio 	lossRate:max 	nan
attr interpolationmode  backward-sample-hold
attr title  "packet loss rate, max"
scalar LothianBusNet.ap[0].wlan[0].radio 	lossRate:timeavg 	nan
attr interpolationmode  backward-sample-hold
attr title  "packet loss rate, timeavg"
scalar LothianBusNet.ap[0].wlan[0].radio 	radioState:count 	2151
attr interpolationmode  sample-hold
attr title  "radio state (enum), count"
statistic LothianBusNet.ap[0].wlan[0].radio 	channelNo:histogram
field count 1
field mean 0
field stddev nan
field sum 0
field sqrsum 0
field min 0
field max 0
attr interpolationmode  sample-hold
attr title  "channel no, histogram"
bin	-INF	0
bin	-0.5	0
bin	-0.46666666666667	0
bin	-0.43333333333333	0
bin	-0.4	0
bin	-0.36666666666667	0
bin	-0.33333333333333	0
bin	-0.3	0
bin	-0.26666666666667	0
bin	-0.23333333333333	0
bin	-0.2	0
bin	-0.16666666666667	0
bin	-0.13333333333333	0
bin	-0.1	0
bin	-0.066666666666667	0
bin	-0.033333333333333	0
bin	0	1
bin	0.033333333333333	0
bin	0.066666666666667	0
bin	0.1	0
bin	0.13333333333333	0
bin	0.16666666666667	0
bin	0.2	0
bin	0.23333333333333	0
bin	0.26666666666667	0
bin	0.3	0
bin	0.33333333333333	0
bin	0.36666666666667	0
bin	0.4	0
bin	0.43333333333333	0
bin	0.46666666666667	0
bin	0.5	0
scalar LothianBusNet.ap[0].wlan[0].radio 	bitrate:min 	54000000
attr interpolationmode  sample-hold
attr title  "tx bitrate, min"
attr unit  bps
scalar LothianBusNet.ap[0].wlan[0].radio 	bitrate:max 	54000000
attr interpolationmode  sample-hold
attr title  "tx bitrate, max"
attr unit  bps
scalar LothianBusNet.ap[0].wlan[0].radio 	bitrate:timeavg 	54000000
attr interpolationmode  sample-hold
attr title  "tx bitrate, timeavg"
attr unit  bps
scalar LothianBusNet.ap[0].eth[0].mac 	"simulated time" 	107.4598286793
scalar LothianBusNet.ap[0].eth[0].mac 	full-duplex 	1
scalar LothianBusNet.ap[0].eth[0].mac 	"frames/sec sent" 	0
scalar LothianBusNet.ap[0].eth[0].mac 	"frames/sec rcvd" 	0
scalar LothianBusNet.ap[0].eth[0].mac 	"bits/sec sent" 	0
scalar LothianBusNet.ap[0].eth[0].mac 	"bits/sec rcvd" 	0
scalar LothianBusNet.ap[0].eth[0].mac 	"rx channel idle (%)" 	100
scalar LothianBusNet.ap[0].eth[0].mac 	"rx channel utilization (%)" 	0
scalar LothianBusNet.ap[0].eth[0].mac 	droppedPkNotForUs:count 	0
attr interpolationmode  none
attr source  dropPkNotForUs
attr title  "packets dropped/not for us, count"
scalar LothianBusNet.ap[0].eth[0].mac 	droppedPkNotForUs:sum(packetBytes) 	0
attr interpolationmode  none
attr source  dropPkNotForUs
attr title  "packets dropped/not for us, sum(packetBytes)"
scalar LothianBusNet.ap[0].eth[0].mac 	droppedPkBitError:count 	0
attr interpolationmode  none
attr source  dropPkBitError
attr title  "packets dropped/bit error, count"
scalar LothianBusNet.ap[0].eth[0].mac 	droppedPkBitError:sum(packetBytes) 	0
attr interpolationmode  none
attr source  dropPkBitError
attr title  "packets dropped/bit error, sum(packetBytes)"
scalar LothianBusNet.ap[0].eth[0].mac 	droppedPkIfaceDown:count 	0
attr interpolationmode  none
attr source  dropPkIfaceDown
attr title  "packets dropped/interface down, count"
scalar LothianBusNet.ap[0].eth[0].mac 	droppedPkIfaceDown:sum(packetBytes) 	0
attr interpolationmode  none
attr source  dropPkIfaceDown
attr title  "packets dropped/interface down, sum(packetBytes)"
scalar LothianBusNet.ap[0].eth[0].mac 	rxPkFromHL:count 	0
attr interpolationmode  none
attr source  rxPkFromHL
attr title  "packet bytes from higher layer, count"
scalar LothianBusNet.ap[0].eth[0].mac 	rxPkFromHL:sum(packetBytes) 	0
attr interpolationmode  none
attr source  rxPkFromHL
attr title  "packet bytes from higher layer, sum(packetBytes)"
scalar LothianBusNet.ap[0].eth[0].mac 	rxPausePkUnits:count 	0
attr interpolationmode  none
attr title  "pause units received, count"
scalar LothianBusNet.ap[0].eth[0].mac 	rxPausePkUnits:sum 	0
attr interpolationmode  none
attr title  "pause units received, sum"
scalar LothianBusNet.ap[0].eth[0].mac 	txPausePkUnits:count 	0
attr interpolationmode  none
attr title  "pause units sent, count"
scalar LothianBusNet.ap[0].eth[0].mac 	txPausePkUnits:sum 	0
attr interpolationmode  none
attr title  "pause units sent, sum"
scalar LothianBusNet.ap[0].eth[0].mac 	rxPkOk:count 	0
attr interpolationmode  none
attr source  rxPkOk
attr title  "packets received OK, count"
scalar LothianBusNet.ap[0].eth[0].mac 	rxPkOk:sum(packetBytes) 	0
attr interpolationmode  none
attr source  rxPkOk
attr title  "packets received OK, sum(packetBytes)"
scalar LothianBusNet.ap[0].eth[0].mac 	txPk:count 	0
attr interpolationmode  none
attr source  txPk
attr title  "packets transmitted, count"
scalar LothianBusNet.ap[0].eth[0].mac 	txPk:sum(packetBytes) 	0
attr interpolationmode  none
attr source  txPk
attr title  "packets transmitted, sum(packetBytes)"
scalar LothianBusNet.ap[0].eth[0].mac 	passedUpPk:count 	0
attr interpolationmode  none
attr source  packetSentToUpper
attr title  "packets passed to higher layer, count"
scalar LothianBusNet.ap[0].eth[0].mac 	passedUpPk:sum(packetBytes) 	0
attr interpolationmode  none
attr source  packetSentToUpper
attr title  "packets passed to higher layer, sum(packetBytes)"
scalar LothianBusNet.ap[1].relayUnit 	"processed frames" 	0
scalar LothianBusNet.ap[1].relayUnit 	"dropped frames" 	0
scalar LothianBusNet.ap[1].relayUnit 	droppedBytes:count 	0
attr title  "Dropped bytes, count"
scalar LothianBusNet.ap[1].relayUnit 	droppedBytes:sum 	0
attr title  "Dropped bytes, sum"
scalar LothianBusNet.ap[1].relayUnit 	processedBytes:count 	0
attr title  "Processed bytes, count"
scalar LothianBusNet.ap[1].relayUnit 	processedBytes:sum 	0
attr title  "Processed bytes, sum"
scalar LothianBusNet.ap[1].relayUnit 	usedBufferBytes:max 	nan
attr title  "Used buffer bytes, max"
scalar LothianBusNet.ap[1].relayUnit 	usedBufferBytes:timeavg 	nan
attr title  "Used buffer bytes, timeavg"
scalar LothianBusNet.ap[1].wlan[0].mgmt 	dropPkByQueue:count 	0
attr interpolationmode  none
attr source  dropPkByQueue
attr title  "packets dropped by queue, count"
scalar LothianBusNet.ap[1].wlan[0].mgmt 	dropPkByQueue:sum(packetBytes) 	0
attr interpolationmode  none
attr source  dropPkByQueue
attr title  "packets dropped by queue, sum(packetBytes)"
scalar LothianBusNet.ap[1].wlan[0].mgmt 	dataQueueLen:max 	0
attr interpolationmode  sample-hold
attr title  "data queue length, max"
scalar LothianBusNet.ap[1].wlan[0].mgmt 	dataQueueLen:timeavg 	0
attr interpolationmode  sample-hold
attr title  "data queue length, timeavg"
scalar LothianBusNet.ap[1].wlan[0].mac 	"number of received packets" 	0
scalar LothianBusNet.ap[1].wlan[0].mac 	"number of collisions" 	0
scalar LothianBusNet.ap[1].wlan[0].mac 	"number of internal collisions" 	0
scalar LothianBusNet.ap[1].wlan[0].mac 	"number of retry for AC 0" 	0
scalar LothianBusNet.ap[1].wlan[0].mac 	"sent and received bits" 	670176
scalar LothianBusNet.ap[1].wlan[0].mac 	"sent packet within AC 0" 	0
scalar LothianBusNet.ap[1].wlan[0].mac 	"sent in TXOP " 	0
scalar LothianBusNet.ap[1].wlan[0].mac 	"sentWithoutRetry AC 0" 	0
scalar LothianBusNet.ap[1].wlan[0].mac 	"numGivenUp AC 0" 	0
scalar LothianBusNet.ap[1].wlan[0].mac 	"numDropped AC 0" 	0
scalar LothianBusNet.ap[1].wlan[0].mac 	rcvdPkFromLL:count 	0
attr interpolationmode  none
attr source  packetReceivedFromLower
attr title  "packets received from lower layer, count"
scalar LothianBusNet.ap[1].wlan[0].mac 	rcvdPkFromLL:sum(packetBytes) 	0
attr interpolationmode  none
attr source  packetReceivedFromLower
attr title  "packets received from lower layer, sum(packetBytes)"
scalar LothianBusNet.ap[1].wlan[0].mac 	rcvdPkFromHL:count 	1074
attr interpolationmode  none
attr source  packetReceivedFromUpper
attr title  "packets received from higher layer, count"
scalar LothianBusNet.ap[1].wlan[0].mac 	rcvdPkFromHL:sum(packetBytes) 	83772
attr interpolationmode  none
attr source  packetReceivedFromUpper
attr title  "packets received from higher layer, sum(packetBytes)"
scalar LothianBusNet.ap[1].wlan[0].mac 	sentDownPk:count 	1074
attr interpolationmode  none
attr source  packetSentToLower
attr title  "packets sent to lower layer, count"
scalar LothianBusNet.ap[1].wlan[0].mac 	sentDownPk:sum(packetBytes) 	83772
attr interpolationmode  none
attr source  packetSentToLower
attr title  "packets sent to lower layer, sum(packetBytes)"
scalar LothianBusNet.ap[1].wlan[0].mac 	passedUpPk:count 	0
attr interpolationmode  none
attr source  packetSentToUpper
attr title  "packets passed to higher layer, count"
scalar LothianBusNet.ap[1].wlan[0].mac 	passedUpPk:sum(packetBytes) 	0
attr interpolationmode  none
attr source  packetSentToUpper
attr title  "packets passed to higher layer, sum(packetBytes)"
scalar LothianBusNet.ap[1].wlan[0].radio 	lossRate:min 	nan
attr interpolationmode  backward-sample-hold
attr title  "packet loss rate, min"
scalar LothianBusNet.ap[1].wlan[0].radio 	lossRate:max 	nan
attr interpolationmode  backward-sample-hold
attr title  "packet loss rate, max"
scalar LothianBusNet.ap[1].wlan[0].radio 	lossRate:timeavg 	nan
attr interpolationmode  backward-sample-hold
attr title  "packet loss rate, timeavg"
scalar LothianBusNet.ap[1].wlan[0].radio 	radioState:count 	2149
attr interpolationmode  sample-hold
attr title  "radio state (enum), count"
statistic LothianBusNet.ap[1].wlan[0].radio 	channelNo:histogram
field count 1
field mean 0
field stddev nan
field sum 0
field sqrsum 0
field min 0
field max 0
attr interpolationmode  sample-hold
attr title  "channel no, histogram"
bin	-INF	0
bin	-0.5	0
bin	-0.46666666666667	0
bin	-0.43333333333333	0
bin	-0.4	0
bin	-0.36666666666667	0
bin	-0.33333333333333	0
bin	-0.3	0
bin	-0.26666666666667	0
bin	-0.23333333333333	0
bin	-0.2	0
bin	-0.16666666666667	0
bin	-0.13333333333333	0
bin	-0.1	0
bin	-0.066666666666667	0
bin	-0.033333333333333	0
bin	0	1
bin	0.033333333333333	0
bin	0.066666666666667	0
bin	0.1	0
bin	0.13333333333333	0
bin	0.16666666666667	0
bin	0.2	0
bin	0.23333333333333	0
bin	0.26666666666667	0
bin	0.3	0
bin	0.33333333333333	0
bin	0.36666666666667	0
bin	0.4	0
bin	0.43333333333333	0
bin	0.46666666666667	0
bin	0.5	0
scalar LothianBusNet.ap[1].wlan[0].radio 	bitrate:min 	54000000
attr interpolationmode  sample-hold
attr title  "tx bitrate, min"
attr unit  bps
scalar LothianBusNet.ap[1].wlan[0].radio 	bitrate:max 	54000000
attr interpolationmode  sample-hold
attr title  "tx bitrate, max"
attr unit  bps
scalar LothianBusNet.ap[1].wlan[0].radio 	bitrate:timeavg 	54000000
attr interpolationmode  sample-hold
attr title  "tx bitrate, timeavg"
attr unit  bps
scalar LothianBusNet.ap[1].eth[0].mac 	"simulated time" 	107.4598286793
scalar LothianBusNet.ap[1].eth[0].mac 	full-duplex 	1
scalar LothianBusNet.ap[1].eth[0].mac 	"frames/sec sent" 	0
scalar LothianBusNet.ap[1].eth[0].mac 	"frames/sec rcvd" 	0
scalar LothianBusNet.ap[1].eth[0].mac 	"bits/sec sent" 	0
scalar LothianBusNet.ap[1].eth[0].mac 	"bits/sec rcvd" 	0
scalar LothianBusNet.ap[1].eth[0].mac 	"rx channel idle (%)" 	100
scalar LothianBusNet.ap[1].eth[0].mac 	"rx channel utilization (%)" 	0
scalar LothianBusNet.ap[1].eth[0].mac 	droppedPkNotForUs:count 	0
attr interpolationmode  none
attr source  dropPkNotForUs
attr title  "packets dropped/not for us, count"
scalar LothianBusNet.ap[1].eth[0].mac 	droppedPkNotForUs:sum(packetBytes) 	0
attr interpolationmode  none
attr source  dropPkNotForUs
attr title  "packets dropped/not for us, sum(packetBytes)"
scalar LothianBusNet.ap[1].eth[0].mac 	droppedPkBitError:count 	0
attr interpolationmode  none
attr source  dropPkBitError
attr title  "packets dropped/bit error, count"
scalar LothianBusNet.ap[1].eth[0].mac 	droppedPkBitError:sum(packetBytes) 	0
attr interpolationmode  none
attr source  dropPkBitError
attr title  "packets dropped/bit error, sum(packetBytes)"
scalar LothianBusNet.ap[1].eth[0].mac 	droppedPkIfaceDown:count 	0
attr interpolationmode  none
attr source  dropPkIfaceDown
attr title  "packets dropped/interface down, count"
scalar LothianBusNet.ap[1].eth[0].mac 	droppedPkIfaceDown:sum(packetBytes) 	0
attr interpolationmode  none
attr source  dropPkIfaceDown
attr title  "packets dropped/interface down, sum(packetBytes)"
scalar LothianBusNet.ap[1].eth[0].mac 	rxPkFromHL:count 	0
attr interpolationmode  none
attr source  rxPkFromHL
attr title  "packet bytes from higher layer, count"
scalar LothianBusNet.ap[1].eth[0].mac 	rxPkFromHL:sum(packetBytes) 	0
attr interpolationmode  none
attr source  rxPkFromHL
attr title  "packet bytes from higher layer, sum(packetBytes)"
scalar LothianBusNet.ap[1].eth[0].mac 	rxPausePkUnits:count 	0
attr interpolationmode  none
attr title  "pause units received, count"
scalar LothianBusNet.ap[1].eth[0].mac 	rxPausePkUnits:sum 	0
attr interpolationmode  none
attr title  "pause units received, sum"
scalar LothianBusNet.ap[1].eth[0].mac 	txPausePkUnits:count 	0
attr interpolationmode  none
attr title  "pause units sent, count"
scalar LothianBusNet.ap[1].eth[0].mac 	txPausePkUnits:sum 	0
attr interpolationmode  none
attr title  "pause units sent, sum"
scalar LothianBusNet.ap[1].eth[0].mac 	rxPkOk:count 	0
attr interpolationmode  none
attr source  rxPkOk
attr title  "packets received OK, count"
scalar LothianBusNet.ap[1].eth[0].mac 	rxPkOk:sum(packetBytes) 	0
attr interpolationmode  none
attr source  rxPkOk
attr title  "packets received OK, sum(packetBytes)"
scalar LothianBusNet.ap[1].eth[0].mac 	txPk:count 	0
attr interpolationmode  none
attr source  txPk
attr title  "packets transmitted, count"
scalar LothianBusNet.ap[1].eth[0].mac 	txPk:sum(packetBytes) 	0
attr interpolationmode  none
attr source  txPk
attr title  "packets transmitted, sum(packetBytes)"
scalar LothianBusNet.ap[1].eth[0].mac 	passedUpPk:count 	0
attr interpolationmode  none
attr source  packetSentToUpper
attr title  "packets passed to higher layer, count"
scalar LothianBusNet.ap[1].eth[0].mac 	passedUpPk:sum(packetBytes) 	0
attr interpolationmode  none
attr source  packetSentToUpper
attr title  "packets passed to higher layer, sum(packetBytes)"
scalar LothianBusNet.ap[2].relayUnit 	"processed frames" 	0
scalar LothianBusNet.ap[2].relayUnit 	"dropped frames" 	0
scalar LothianBusNet.ap[2].relayUnit 	droppedBytes:count 	0
attr title  "Dropped bytes, count"
scalar LothianBusNet.ap[2].relayUnit 	droppedBytes:sum 	0
attr title  "Dropped bytes, sum"
scalar LothianBusNet.ap[2].relayUnit 	processedBytes:count 	0
attr title  "Processed bytes, count"
scalar LothianBusNet.ap[2].relayUnit 	processedBytes:sum 	0
attr title  "Processed bytes, sum"
scalar LothianBusNet.ap[2].relayUnit 	usedBufferBytes:max 	nan
attr title  "Used buffer bytes, max"
scalar LothianBusNet.ap[2].relayUnit 	usedBufferBytes:timeavg 	nan
attr title  "Used buffer bytes, timeavg"
scalar LothianBusNet.ap[2].wlan[0].mgmt 	dropPkByQueue:count 	0
attr interpolationmode  none
attr source  dropPkByQueue
attr title  "packets dropped by queue, count"
scalar LothianBusNet.ap[2].wlan[0].mgmt 	dropPkByQueue:sum(packetBytes) 	0
attr interpolationmode  none
attr source  dropPkByQueue
attr title  "packets dropped by queue, sum(packetBytes)"
scalar LothianBusNet.ap[2].wlan[0].mgmt 	dataQueueLen:max 	0
attr interpolationmode  sample-hold
attr title  "data queue length, max"
scalar LothianBusNet.ap[2].wlan[0].mgmt 	dataQueueLen:timeavg 	0
attr interpolationmode  sample-hold
attr title  "data queue length, timeavg"
scalar LothianBusNet.ap[2].wlan[0].mac 	"number of received packets" 	0
scalar LothianBusNet.ap[2].wlan[0].mac 	"number of collisions" 	0
scalar LothianBusNet.ap[2].wlan[0].mac 	"number of internal collisions" 	0
scalar LothianBusNet.ap[2].wlan[0].mac 	"number of retry for AC 0" 	0
scalar LothianBusNet.ap[2].wlan[0].mac 	"sent and received bits" 	670176
scalar LothianBusNet.ap[2].wlan[0].mac 	"sent packet within AC 0" 	0
scalar LothianBusNet.ap[2].wlan[0].mac 	"sent in TXOP " 	0
scalar LothianBusNet.ap[2].wlan[0].mac 	"sentWithoutRetry AC 0" 	0
scalar LothianBusNet.ap[2].wlan[0].mac 	"numGivenUp AC 0" 	0
scalar LothianBusNet.ap[2].wlan[0].mac 	"numDropped AC 0" 	0
scalar LothianBusNet.ap[2].wlan[0].mac 	rcvdPkFromLL:count 	0
attr interpolationmode  none
attr source  packetReceivedFromLower
attr title  "packets received from lower layer, count"
scalar LothianBusNet.ap[2].wlan[0].mac 	rcvdPkFromLL:sum(packetBytes) 	0
attr interpolationmode  none
attr source  packetReceivedFromLower
attr title  "packets received from lower layer, sum(packetBytes)"
scalar LothianBusNet.ap[2].wlan[0].mac 	rcvdPkFromHL:count 	1074
attr interpolationmode  none
attr source  packetReceivedFromUpper
attr title  "packets received from higher layer, count"
scalar LothianBusNet.ap[2].wlan[0].mac 	rcvdPkFromHL:sum(packetBytes) 	83772
attr interpolationmode  none
attr source  packetReceivedFromUpper
attr title  "packets received from higher layer, sum(packetBytes)"
scalar LothianBusNet.ap[2].wlan[0].mac 	sentDownPk:count 	1074
attr interpolationmode  none
attr source  packetSentToLower
attr title  "packets sent to lower layer, count"
scalar LothianBusNet.ap[2].wlan[0].mac 	sentDownPk:sum(packetBytes) 	83772
attr interpolationmode  none
attr source  packetSentToLower
attr title  "packets sent to lower layer, sum(packetBytes)"
scalar LothianBusNet.ap[2].wlan[0].mac 	passedUpPk:count 	0
attr interpolationmode  none
attr source  packetSentToUpper
attr title  "packets passed to higher layer, count"
scalar LothianBusNet.ap[2].wlan[0].mac 	passedUpPk:sum(packetBytes) 	0
attr interpolationmode  none
attr source  packetSentToUpper
attr title  "packets passed to higher layer, sum(packetBytes)"
scalar LothianBusNet.ap[2].wlan[0].radio 	lossRate:min 	nan
attr interpolationmode  backward-sample-hold
attr title  "packet loss rate, min"
scalar LothianBusNet.ap[2].wlan[0].radio 	lossRate:max 	nan
attr interpolationmode  backward-sample-hold
attr title  "packet loss rate, max"
scalar LothianBusNet.ap[2].wlan[0].radio 	lossRate:timeavg 	nan
attr interpolationmode  backward-sample-hold
attr title  "packet loss rate, timeavg"
scalar LothianBusNet.ap[2].wlan[0].radio 	radioState:count 	2149
attr interpolationmode  sample-hold
attr title  "radio state (enum), count"
statistic LothianBusNet.ap[2].wlan[0].radio 	channelNo:histogram
field count 1
field mean 0
field stddev nan
field sum 0
field sqrsum 0
field min 0
field max 0
attr interpolationmode  sample-hold
attr title  "channel no, histogram"
bin	-INF	0
bin	-0.5	0
bin	-0.46666666666667	0
bin	-0.43333333333333	0
bin	-0.4	0
bin	-0.36666666666667	0
bin	-0.33333333333333	0
bin	-0.3	0
bin	-0.26666666666667	0
bin	-0.23333333333333	0
bin	-0.2	0
bin	-0.16666666666667	0
bin	-0.13333333333333	0
bin	-0.1	0
bin	-0.066666666666667	0
bin	-0.033333333333333	0
bin	0	1
bin	0.033333333333333	0
bin	0.066666666666667	0
bin	0.1	0
bin	0.13333333333333	0
bin	0.16666666666667	0
bin	0.2	0
bin	0.23333333333333	0
bin	0.26666666666667	0
bin	0.3	0
bin	0.33333333333333	0
bin	0.36666666666667	0
bin	0.4	0
bin	0.43333333333333	0
bin	0.46666666666667	0
bin	0.5	0
scalar LothianBusNet.ap[2].wlan[0].radio 	bitrate:min 	54000000
attr interpolationmode  sample-hold
attr title  "tx bitrate, min"
attr unit  bps
scalar LothianBusNet.ap[2].wlan[0].radio 	bitrate:max 	54000000
attr interpolationmode  sample-hold
attr title  "tx bitrate, max"
attr unit  bps
scalar LothianBusNet.ap[2].wlan[0].radio 	bitrate:timeavg 	54000000
attr interpolationmode  sample-hold
attr title  "tx bitrate, timeavg"
attr unit  bps
scalar LothianBusNet.ap[2].eth[0].mac 	"simulated time" 	107.4598286793
scalar LothianBusNet.ap[2].eth[0].mac 	full-duplex 	1
scalar LothianBusNet.ap[2].eth[0].mac 	"frames/sec sent" 	0
scalar LothianBusNet.ap[2].eth[0].mac 	"frames/sec rcvd" 	0
scalar LothianBusNet.ap[2].eth[0].mac 	"bits/sec sent" 	0
scalar LothianBusNet.ap[2].eth[0].mac 	"bits/sec rcvd" 	0
scalar LothianBusNet.ap[2].eth[0].mac 	"rx channel idle (%)" 	100
scalar LothianBusNet.ap[2].eth[0].mac 	"rx channel utilization (%)" 	0
scalar LothianBusNet.ap[2].eth[0].mac 	droppedPkNotForUs:count 	0
attr interpolationmode  none
attr source  dropPkNotForUs
attr title  "packets dropped/not for us, count"
scalar LothianBusNet.ap[2].eth[0].mac 	droppedPkNotForUs:sum(packetBytes) 	0
attr interpolationmode  none
attr source  dropPkNotForUs
attr title  "packets dropped/not for us, sum(packetBytes)"
scalar LothianBusNet.ap[2].eth[0].mac 	droppedPkBitError:count 	0
attr interpolationmode  none
attr source  dropPkBitError
attr title  "packets dropped/bit error, count"
scalar LothianBusNet.ap[2].eth[0].mac 	droppedPkBitError:sum(packetBytes) 	0
attr interpolationmode  none
attr source  dropPkBitError
attr title  "packets dropped/bit error, sum(packetBytes)"
scalar LothianBusNet.ap[2].eth[0].mac 	droppedPkIfaceDown:count 	0
attr interpolationmode  none
attr source  dropPkIfaceDown
attr title  "packets dropped/interface down, count"
scalar LothianBusNet.ap[2].eth[0].mac 	droppedPkIfaceDown:sum(packetBytes) 	0
attr interpolationmode  none
attr source  dropPkIfaceDown
attr title  "packets dropped/interface down, sum(packetBytes)"
scalar LothianBusNet.ap[2].eth[0].mac 	rxPkFromHL:count 	0
attr interpolationmode  none
attr source  rxPkFromHL
attr title  "packet bytes from higher layer, count"
scalar LothianBusNet.ap[2].eth[0].mac 	rxPkFromHL:sum(packetBytes) 	0
attr interpolationmode  none
attr source  rxPkFromHL
attr title  "packet bytes from higher layer, sum(packetBytes)"
scalar LothianBusNet.ap[2].eth[0].mac 	rxPausePkUnits:count 	0
attr interpolationmode  none
attr title  "pause units received, count"
scalar LothianBusNet.ap[2].eth[0].mac 	rxPausePkUnits:sum 	0
attr interpolationmode  none
attr title  "pause units received, sum"
scalar LothianBusNet.ap[2].eth[0].mac 	txPausePkUnits:count 	0
attr interpolationmode  none
attr title  "pause units sent, count"
scalar LothianBusNet.ap[2].eth[0].mac 	txPausePkUnits:sum 	0
attr interpolationmode  none
attr title  "pause units sent, sum"
scalar LothianBusNet.ap[2].eth[0].mac 	rxPkOk:count 	0
attr interpolationmode  none
attr source  rxPkOk
attr title  "packets received OK, count"
scalar LothianBusNet.ap[2].eth[0].mac 	rxPkOk:sum(packetBytes) 	0
attr interpolationmode  none
attr source  rxPkOk
attr title  "packets received OK, sum(packetBytes)"
scalar LothianBusNet.ap[2].eth[0].mac 	txPk:count 	0
attr interpolationmode  none
attr source  txPk
attr title  "packets transmitted, count"
scalar LothianBusNet.ap[2].eth[0].mac 	txPk:sum(packetBytes) 	0
attr interpolationmode  none
attr source  txPk
attr title  "packets transmitted, sum(packetBytes)"
scalar LothianBusNet.ap[2].eth[0].mac 	passedUpPk:count 	0
attr interpolationmode  none
attr source  packetSentToUpper
attr title  "packets passed to higher layer, count"
scalar LothianBusNet.ap[2].eth[0].mac 	passedUpPk:sum(packetBytes) 	0
attr interpolationmode  none
attr source  packetSentToUpper
attr title  "packets passed to higher layer, sum(packetBytes)"
scalar LothianBusNet.ap[3].relayUnit 	"processed frames" 	0
scalar LothianBusNet.ap[3].relayUnit 	"dropped frames" 	0
scalar LothianBusNet.ap[3].relayUnit 	droppedBytes:count 	0
attr title  "Dropped bytes, count"
scalar LothianBusNet.ap[3].relayUnit 	droppedBytes:sum 	0
attr title  "Dropped bytes, sum"
scalar LothianBusNet.ap[3].relayUnit 	processedBytes:count 	0
attr title  "Processed bytes, count"
scalar LothianBusNet.ap[3].relayUnit 	processedBytes:sum 	0
attr title  "Processed bytes, sum"
scalar LothianBusNet.ap[3].relayUnit 	usedBufferBytes:max 	nan
attr title  "Used buffer bytes, max"
scalar LothianBusNet.ap[3].relayUnit 	usedBufferBytes:timeavg 	nan
attr title  "Used buffer bytes, timeavg"
scalar LothianBusNet.ap[3].wlan[0].mgmt 	dropPkByQueue:count 	0
attr interpolationmode  none
attr source  dropPkByQueue
attr title  "packets dropped by queue, count"
scalar LothianBusNet.ap[3].wlan[0].mgmt 	dropPkByQueue:sum(packetBytes) 	0
attr interpolationmode  none
attr source  dropPkByQueue
attr title  "packets dropped by queue, sum(packetBytes)"
scalar LothianBusNet.ap[3].wlan[0].mgmt 	dataQueueLen:max 	0
attr interpolationmode  sample-hold
attr title  "data queue length, max"
scalar LothianBusNet.ap[3].wlan[0].mgmt 	dataQueueLen:timeavg 	0
attr interpolationmode  sample-hold
attr title  "data queue length, timeavg"
scalar LothianBusNet.ap[3].wlan[0].mac 	"number of received packets" 	0
scalar LothianBusNet.ap[3].wlan[0].mac 	"number of collisions" 	0
scalar LothianBusNet.ap[3].wlan[0].mac 	"number of internal collisions" 	0
scalar LothianBusNet.ap[3].wlan[0].mac 	"number of retry for AC 0" 	0
scalar LothianBusNet.ap[3].wlan[0].mac 	"sent and received bits" 	670176
scalar LothianBusNet.ap[3].wlan[0].mac 	"sent packet within AC 0" 	0
scalar LothianBusNet.ap[3].wlan[0].mac 	"sent in TXOP " 	0
scalar LothianBusNet.ap[3].wlan[0].mac 	"sentWithoutRetry AC 0" 	0
scalar LothianBusNet.ap[3].wlan[0].mac 	"numGivenUp AC 0" 	0
scalar LothianBusNet.ap[3].wlan[0].mac 	"numDropped AC 0" 	0
scalar LothianBusNet.ap[3].wlan[0].mac 	rcvdPkFromLL:count 	0
attr interpolationmode  none
attr source  packetReceivedFromLower
attr title  "packets received from lower layer, count"
scalar LothianBusNet.ap[3].wlan[0].mac 	rcvdPkFromLL:sum(packetBytes) 	0
attr interpolationmode  none
attr source  packetReceivedFromLower
attr title  "packets received from lower layer, sum(packetBytes)"
scalar LothianBusNet.ap[3].wlan[0].mac 	rcvdPkFromHL:count 	1074
attr interpolationmode  none
attr source  packetReceivedFromUpper
attr title  "packets received from higher layer, count"
scalar LothianBusNet.ap[3].wlan[0].mac 	rcvdPkFromHL:sum(packetBytes) 	83772
attr interpolationmode  none
attr source  packetReceivedFromUpper
attr title  "packets received from higher layer, sum(packetBytes)"
scalar LothianBusNet.ap[3].wlan[0].mac 	sentDownPk:count 	1074
attr interpolationmode  none
attr source  packetSentToLower
attr title  "packets sent to lower layer, count"
scalar LothianBusNet.ap[3].wlan[0].mac 	sentDownPk:sum(packetBytes) 	83772
attr interpolationmode  none
attr source  packetSentToLower
attr title  "packets sent to lower layer, sum(packetBytes)"
scalar LothianBusNet.ap[3].wlan[0].mac 	passedUpPk:count 	0
attr interpolationmode  none
attr source  packetSentToUpper
attr title  "packets passed to higher layer, count"
scalar LothianBusNet.ap[3].wlan[0].mac 	passedUpPk:sum(packetBytes) 	0
attr interpolationmode  none
attr source  packetSentToUpper
attr title  "packets passed to higher layer, sum(packetBytes)"
scalar LothianBusNet.ap[3].wlan[0].radio 	lossRate:min 	nan
attr interpolationmode  backward-sample-hold
attr title  "packet loss rate, min"
scalar LothianBusNet.ap[3].wlan[0].radio 	lossRate:max 	nan
attr interpolationmode  backward-sample-hold
attr title  "packet loss rate, max"
scalar LothianBusNet.ap[3].wlan[0].radio 	lossRate:timeavg 	nan
attr interpolationmode  backward-sample-hold
attr title  "packet loss rate, timeavg"
scalar LothianBusNet.ap[3].wlan[0].radio 	radioState:count 	2149
attr interpolationmode  sample-hold
attr title  "radio state (enum), count"
statistic LothianBusNet.ap[3].wlan[0].radio 	channelNo:histogram
field count 1
field mean 0
field stddev nan
field sum 0
field sqrsum 0
field min 0
field max 0
attr interpolationmode  sample-hold
attr title  "channel no, histogram"
bin	-INF	0
bin	-0.5	0
bin	-0.46666666666667	0
bin	-0.43333333333333	0
bin	-0.4	0
bin	-0.36666666666667	0
bin	-0.33333333333333	0
bin	-0.3	0
bin	-0.26666666666667	0
bin	-0.23333333333333	0
bin	-0.2	0
bin	-0.16666666666667	0
bin	-0.13333333333333	0
bin	-0.1	0
bin	-0.066666666666667	0
bin	-0.033333333333333	0
bin	0	1
bin	0.033333333333333	0
bin	0.066666666666667	0
bin	0.1	0
bin	0.13333333333333	0
bin	0.16666666666667	0
bin	0.2	0
bin	0.23333333333333	0
bin	0.26666666666667	0
bin	0.3	0
bin	0.33333333333333	0
bin	0.36666666666667	0
bin	0.4	0
bin	0.43333333333333	0
bin	0.46666666666667	0
bin	0.5	0
scalar LothianBusNet.ap[3].wlan[0].radio 	bitrate:min 	54000000
attr interpolationmode  sample-hold
attr title  "tx bitrate, min"
attr unit  bps
scalar LothianBusNet.ap[3].wlan[0].radio 	bitrate:max 	54000000
attr interpolationmode  sample-hold
attr title  "tx bitrate, max"
attr unit  bps
scalar LothianBusNet.ap[3].wlan[0].radio 	bitrate:timeavg 	54000000
attr interpolationmode  sample-hold
attr title  "tx bitrate, timeavg"
attr unit  bps
scalar LothianBusNet.ap[3].eth[0].mac 	"simulated time" 	107.4598286793
scalar LothianBusNet.ap[3].eth[0].mac 	full-duplex 	1
scalar LothianBusNet.ap[3].eth[0].mac 	"frames/sec sent" 	0
scalar LothianBusNet.ap[3].eth[0].mac 	"frames/sec rcvd" 	0
scalar LothianBusNet.ap[3].eth[0].mac 	"bits/sec sent" 	0
scalar LothianBusNet.ap[3].eth[0].mac 	"bits/sec rcvd" 	0
scalar LothianBusNet.ap[3].eth[0].mac 	"rx channel idle (%)" 	100
scalar LothianBusNet.ap[3].eth[0].mac 	"rx channel utilization (%)" 	0
scalar LothianBusNet.ap[3].eth[0].mac 	droppedPkNotForUs:count 	0
attr interpolationmode  none
attr source  dropPkNotForUs
attr title  "packets dropped/not for us, count"
scalar LothianBusNet.ap[3].eth[0].mac 	droppedPkNotForUs:sum(packetBytes) 	0
attr interpolationmode  none
attr source  dropPkNotForUs
attr title  "packets dropped/not for us, sum(packetBytes)"
scalar LothianBusNet.ap[3].eth[0].mac 	droppedPkBitError:count 	0
attr interpolationmode  none
attr source  dropPkBitError
attr title  "packets dropped/bit error, count"
scalar LothianBusNet.ap[3].eth[0].mac 	droppedPkBitError:sum(packetBytes) 	0
attr interpolationmode  none
attr source  dropPkBitError
attr title  "packets dropped/bit error, sum(packetBytes)"
scalar LothianBusNet.ap[3].eth[0].mac 	droppedPkIfaceDown:count 	0
attr interpolationmode  none
attr source  dropPkIfaceDown
attr title  "packets dropped/interface down, count"
scalar LothianBusNet.ap[3].eth[0].mac 	droppedPkIfaceDown:sum(packetBytes) 	0
attr interpolationmode  none
attr source  dropPkIfaceDown
attr title  "packets dropped/interface down, sum(packetBytes)"
scalar LothianBusNet.ap[3].eth[0].mac 	rxPkFromHL:count 	0
attr interpolationmode  none
attr source  rxPkFromHL
attr title  "packet bytes from higher layer, count"
scalar LothianBusNet.ap[3].eth[0].mac 	rxPkFromHL:sum(packetBytes) 	0
attr interpolationmode  none
attr source  rxPkFromHL
attr title  "packet bytes from higher layer, sum(packetBytes)"
scalar LothianBusNet.ap[3].eth[0].mac 	rxPausePkUnits:count 	0
attr interpolationmode  none
attr title  "pause units received, count"
scalar LothianBusNet.ap[3].eth[0].mac 	rxPausePkUnits:sum 	0
attr interpolationmode  none
attr title  "pause units received, sum"
scalar LothianBusNet.ap[3].eth[0].mac 	txPausePkUnits:count 	0
attr interpolationmode  none
attr title  "pause units sent, count"
scalar LothianBusNet.ap[3].eth[0].mac 	txPausePkUnits:sum 	0
attr interpolationmode  none
attr title  "pause units sent, sum"
scalar LothianBusNet.ap[3].eth[0].mac 	rxPkOk:count 	0
attr interpolationmode  none
attr source  rxPkOk
attr title  "packets received OK, count"
scalar LothianBusNet.ap[3].eth[0].mac 	rxPkOk:sum(packetBytes) 	0
attr interpolationmode  none
attr source  rxPkOk
attr title  "packets received OK, sum(packetBytes)"
scalar LothianBusNet.ap[3].eth[0].mac 	txPk:count 	0
attr interpolationmode  none
attr source  txPk
attr title  "packets transmitted, count"
scalar LothianBusNet.ap[3].eth[0].mac 	txPk:sum(packetBytes) 	0
attr interpolationmode  none
attr source  txPk
attr title  "packets transmitted, sum(packetBytes)"
scalar LothianBusNet.ap[3].eth[0].mac 	passedUpPk:count 	0
attr interpolationmode  none
attr source  packetSentToUpper
attr title  "packets passed to higher layer, count"
scalar LothianBusNet.ap[3].eth[0].mac 	passedUpPk:sum(packetBytes) 	0
attr interpolationmode  none
attr source  packetSentToUpper
attr title  "packets passed to higher layer, sum(packetBytes)"
scalar LothianBusNet.ap[4].relayUnit 	"processed frames" 	0
scalar LothianBusNet.ap[4].relayUnit 	"dropped frames" 	0
scalar LothianBusNet.ap[4].relayUnit 	droppedBytes:count 	0
attr title  "Dropped bytes, count"
scalar LothianBusNet.ap[4].relayUnit 	droppedBytes:sum 	0
attr title  "Dropped bytes, sum"
scalar LothianBusNet.ap[4].relayUnit 	processedBytes:count 	0
attr title  "Processed bytes, count"
scalar LothianBusNet.ap[4].relayUnit 	processedBytes:sum 	0
attr title  "Processed bytes, sum"
scalar LothianBusNet.ap[4].relayUnit 	usedBufferBytes:max 	nan
attr title  "Used buffer bytes, max"
scalar LothianBusNet.ap[4].relayUnit 	usedBufferBytes:timeavg 	nan
attr title  "Used buffer bytes, timeavg"
scalar LothianBusNet.ap[4].wlan[0].mgmt 	dropPkByQueue:count 	0
attr interpolationmode  none
attr source  dropPkByQueue
attr title  "packets dropped by queue, count"
scalar LothianBusNet.ap[4].wlan[0].mgmt 	dropPkByQueue:sum(packetBytes) 	0
attr interpolationmode  none
attr source  dropPkByQueue
attr title  "packets dropped by queue, sum(packetBytes)"
scalar LothianBusNet.ap[4].wlan[0].mgmt 	dataQueueLen:max 	0
attr interpolationmode  sample-hold
attr title  "data queue length, max"
scalar LothianBusNet.ap[4].wlan[0].mgmt 	dataQueueLen:timeavg 	0
attr interpolationmode  sample-hold
attr title  "data queue length, timeavg"
scalar LothianBusNet.ap[4].wlan[0].mac 	"number of received packets" 	0
scalar LothianBusNet.ap[4].wlan[0].mac 	"number of collisions" 	0
scalar LothianBusNet.ap[4].wlan[0].mac 	"number of internal collisions" 	0
scalar LothianBusNet.ap[4].wlan[0].mac 	"number of retry for AC 0" 	0
scalar LothianBusNet.ap[4].wlan[0].mac 	"sent and received bits" 	670176
scalar LothianBusNet.ap[4].wlan[0].mac 	"sent packet within AC 0" 	0
scalar LothianBusNet.ap[4].wlan[0].mac 	"sent in TXOP " 	0
scalar LothianBusNet.ap[4].wlan[0].mac 	"sentWithoutRetry AC 0" 	0
scalar LothianBusNet.ap[4].wlan[0].mac 	"numGivenUp AC 0" 	0
scalar LothianBusNet.ap[4].wlan[0].mac 	"numDropped AC 0" 	0
scalar LothianBusNet.ap[4].wlan[0].mac 	rcvdPkFromLL:count 	0
attr interpolationmode  none
attr source  packetReceivedFromLower
attr title  "packets received from lower layer, count"
scalar LothianBusNet.ap[4].wlan[0].mac 	rcvdPkFromLL:sum(packetBytes) 	0
attr interpolationmode  none
attr source  packetReceivedFromLower
attr title  "packets received from lower layer, sum(packetBytes)"
scalar LothianBusNet.ap[4].wlan[0].mac 	rcvdPkFromHL:count 	1074
attr interpolationmode  none
attr source  packetReceivedFromUpper
attr title  "packets received from higher layer, count"
scalar LothianBusNet.ap[4].wlan[0].mac 	rcvdPkFromHL:sum(packetBytes) 	83772
attr interpolationmode  none
attr source  packetReceivedFromUpper
attr title  "packets received from higher layer, sum(packetBytes)"
scalar LothianBusNet.ap[4].wlan[0].mac 	sentDownPk:count 	1074
attr interpolationmode  none
attr source  packetSentToLower
attr title  "packets sent to lower layer, count"
scalar LothianBusNet.ap[4].wlan[0].mac 	sentDownPk:sum(packetBytes) 	83772
attr interpolationmode  none
attr source  packetSentToLower
attr title  "packets sent to lower layer, sum(packetBytes)"
scalar LothianBusNet.ap[4].wlan[0].mac 	passedUpPk:count 	0
attr interpolationmode  none
attr source  packetSentToUpper
attr title  "packets passed to higher layer, count"
scalar LothianBusNet.ap[4].wlan[0].mac 	passedUpPk:sum(packetBytes) 	0
attr interpolationmode  none
attr source  packetSentToUpper
attr title  "packets passed to higher layer, sum(packetBytes)"
scalar LothianBusNet.ap[4].wlan[0].radio 	lossRate:min 	nan
attr interpolationmode  backward-sample-hold
attr title  "packet loss rate, min"
scalar LothianBusNet.ap[4].wlan[0].radio 	lossRate:max 	nan
attr interpolationmode  backward-sample-hold
attr title  "packet loss rate, max"
scalar LothianBusNet.ap[4].wlan[0].radio 	lossRate:timeavg 	nan
attr interpolationmode  backward-sample-hold
attr title  "packet loss rate, timeavg"
scalar LothianBusNet.ap[4].wlan[0].radio 	radioState:count 	2149
attr interpolationmode  sample-hold
attr title  "radio state (enum), count"
statistic LothianBusNet.ap[4].wlan[0].radio 	channelNo:histogram
field count 1
field mean 0
field stddev nan
field sum 0
field sqrsum 0
field min 0
field max 0
attr interpolationmode  sample-hold
attr title  "channel no, histogram"
bin	-INF	0
bin	-0.5	0
bin	-0.46666666666667	0
bin	-0.43333333333333	0
bin	-0.4	0
bin	-0.36666666666667	0
bin	-0.33333333333333	0
bin	-0.3	0
bin	-0.26666666666667	0
bin	-0.23333333333333	0
bin	-0.2	0
bin	-0.16666666666667	0
bin	-0.13333333333333	0
bin	-0.1	0
bin	-0.066666666666667	0
bin	-0.033333333333333	0
bin	0	1
bin	0.033333333333333	0
bin	0.066666666666667	0
bin	0.1	0
bin	0.13333333333333	0
bin	0.16666666666667	0
bin	0.2	0
bin	0.23333333333333	0
bin	0.26666666666667	0
bin	0.3	0
bin	0.33333333333333	0
bin	0.36666666666667	0
bin	0.4	0
bin	0.43333333333333	0
bin	0.46666666666667	0
bin	0.5	0
scalar LothianBusNet.ap[4].wlan[0].radio 	bitrate:min 	54000000
attr interpolationmode  sample-hold
attr title  "tx bitrate, min"
attr unit  bps
scalar LothianBusNet.ap[4].wlan[0].radio 	bitrate:max 	54000000
attr interpolationmode  sample-hold
attr title  "tx bitrate, max"
attr unit  bps
scalar LothianBusNet.ap[4].wlan[0].radio 	bitrate:timeavg 	54000000
attr interpolationmode  sample-hold
attr title  "tx bitrate, timeavg"
attr unit  bps
scalar LothianBusNet.ap[4].eth[0].mac 	"simulated time" 	107.4598286793
scalar LothianBusNet.ap[4].eth[0].mac 	full-duplex 	1
scalar LothianBusNet.ap[4].eth[0].mac 	"frames/sec sent" 	0
scalar LothianBusNet.ap[4].eth[0].mac 	"frames/sec rcvd" 	0
scalar LothianBusNet.ap[4].eth[0].mac 	"bits/sec sent" 	0
scalar LothianBusNet.ap[4].eth[0].mac 	"bits/sec rcvd" 	0
scalar LothianBusNet.ap[4].eth[0].mac 	"rx channel idle (%)" 	100
scalar LothianBusNet.ap[4].eth[0].mac 	"rx channel utilization (%)" 	0
scalar LothianBusNet.ap[4].eth[0].mac 	droppedPkNotForUs:count 	0
attr interpolationmode  none
attr source  dropPkNotForUs
attr title  "packets dropped/not for us, count"
scalar LothianBusNet.ap[4].eth[0].mac 	droppedPkNotForUs:sum(packetBytes) 	0
attr interpolationmode  none
attr source  dropPkNotForUs
attr title  "packets dropped/not for us, sum(packetBytes)"
scalar LothianBusNet.ap[4].eth[0].mac 	droppedPkBitError:count 	0
attr interpolationmode  none
attr source  dropPkBitError
attr title  "packets dropped/bit error, count"
scalar LothianBusNet.ap[4].eth[0].mac 	droppedPkBitError:sum(packetBytes) 	0
attr interpolationmode  none
attr source  dropPkBitError
attr title  "packets dropped/bit error, sum(packetBytes)"
scalar LothianBusNet.ap[4].eth[0].mac 	droppedPkIfaceDown:count 	0
attr interpolationmode  none
attr source  dropPkIfaceDown
attr title  "packets dropped/interface down, count"
scalar LothianBusNet.ap[4].eth[0].mac 	droppedPkIfaceDown:sum(packetBytes) 	0
attr interpolationmode  none
attr source  dropPkIfaceDown
attr title  "packets dropped/interface down, sum(packetBytes)"
scalar LothianBusNet.ap[4].eth[0].mac 	rxPkFromHL:count 	0
attr interpolationmode  none
attr source  rxPkFromHL
attr title  "packet bytes from higher layer, count"
scalar LothianBusNet.ap[4].eth[0].mac 	rxPkFromHL:sum(packetBytes) 	0
attr interpolationmode  none
attr source  rxPkFromHL
attr title  "packet bytes from higher layer, sum(packetBytes)"
scalar LothianBusNet.ap[4].eth[0].mac 	rxPausePkUnits:count 	0
attr interpolationmode  none
attr title  "pause units received, count"
scalar LothianBusNet.ap[4].eth[0].mac 	rxPausePkUnits:sum 	0
attr interpolationmode  none
attr title  "pause units received, sum"
scalar LothianBusNet.ap[4].eth[0].mac 	txPausePkUnits:count 	0
attr interpolationmode  none
attr title  "pause units sent, count"
scalar LothianBusNet.ap[4].eth[0].mac 	txPausePkUnits:sum 	0
attr interpolationmode  none
attr title  "pause units sent, sum"
scalar LothianBusNet.ap[4].eth[0].mac 	rxPkOk:count 	0
attr interpolationmode  none
attr source  rxPkOk
attr title  "packets received OK, count"
scalar LothianBusNet.ap[4].eth[0].mac 	rxPkOk:sum(packetBytes) 	0
attr interpolationmode  none
attr source  rxPkOk
attr title  "packets received OK, sum(packetBytes)"
scalar LothianBusNet.ap[4].eth[0].mac 	txPk:count 	0
attr interpolationmode  none
attr source  txPk
attr title  "packets transmitted, count"
scalar LothianBusNet.ap[4].eth[0].mac 	txPk:sum(packetBytes) 	0
attr interpolationmode  none
attr source  txPk
attr title  "packets transmitted, sum(packetBytes)"
scalar LothianBusNet.ap[4].eth[0].mac 	passedUpPk:count 	0
attr interpolationmode  none
attr source  packetSentToUpper
attr title  "packets passed to higher layer, count"
scalar LothianBusNet.ap[4].eth[0].mac 	passedUpPk:sum(packetBytes) 	0
attr interpolationmode  none
attr source  packetSentToUpper
attr title  "packets passed to higher layer, sum(packetBytes)"
scalar LothianBusNet.ap[5].relayUnit 	"processed frames" 	0
scalar LothianBusNet.ap[5].relayUnit 	"dropped frames" 	0
scalar LothianBusNet.ap[5].relayUnit 	droppedBytes:count 	0
attr title  "Dropped bytes, count"
scalar LothianBusNet.ap[5].relayUnit 	droppedBytes:sum 	0
attr title  "Dropped bytes, sum"
scalar LothianBusNet.ap[5].relayUnit 	processedBytes:count 	0
attr title  "Processed bytes, count"
scalar LothianBusNet.ap[5].relayUnit 	processedBytes:sum 	0
attr title  "Processed bytes, sum"
scalar LothianBusNet.ap[5].relayUnit 	usedBufferBytes:max 	nan
attr title  "Used buffer bytes, max"
scalar LothianBusNet.ap[5].relayUnit 	usedBufferBytes:timeavg 	nan
attr title  "Used buffer bytes, timeavg"
scalar LothianBusNet.ap[5].wlan[0].mgmt 	dropPkByQueue:count 	0
attr interpolationmode  none
attr source  dropPkByQueue
attr title  "packets dropped by queue, count"
scalar LothianBusNet.ap[5].wlan[0].mgmt 	dropPkByQueue:sum(packetBytes) 	0
attr interpolationmode  none
attr source  dropPkByQueue
attr title  "packets dropped by queue, sum(packetBytes)"
scalar LothianBusNet.ap[5].wlan[0].mgmt 	dataQueueLen:max 	0
attr interpolationmode  sample-hold
attr title  "data queue length, max"
scalar LothianBusNet.ap[5].wlan[0].mgmt 	dataQueueLen:timeavg 	0
attr interpolationmode  sample-hold
attr title  "data queue length, timeavg"
scalar LothianBusNet.ap[5].wlan[0].mac 	"number of received packets" 	0
scalar LothianBusNet.ap[5].wlan[0].mac 	"number of collisions" 	0
scalar LothianBusNet.ap[5].wlan[0].mac 	"number of internal collisions" 	0
scalar LothianBusNet.ap[5].wlan[0].mac 	"number of retry for AC 0" 	0
scalar LothianBusNet.ap[5].wlan[0].mac 	"sent and received bits" 	670800
scalar LothianBusNet.ap[5].wlan[0].mac 	"sent packet within AC 0" 	0
scalar LothianBusNet.ap[5].wlan[0].mac 	"sent in TXOP " 	0
scalar LothianBusNet.ap[5].wlan[0].mac 	"sentWithoutRetry AC 0" 	0
scalar LothianBusNet.ap[5].wlan[0].mac 	"numGivenUp AC 0" 	0
scalar LothianBusNet.ap[5].wlan[0].mac 	"numDropped AC 0" 	0
scalar LothianBusNet.ap[5].wlan[0].mac 	rcvdPkFromLL:count 	0
attr interpolationmode  none
attr source  packetReceivedFromLower
attr title  "packets received from lower layer, count"
scalar LothianBusNet.ap[5].wlan[0].mac 	rcvdPkFromLL:sum(packetBytes) 	0
attr interpolationmode  none
attr source  packetReceivedFromLower
attr title  "packets received from lower layer, sum(packetBytes)"
scalar LothianBusNet.ap[5].wlan[0].mac 	rcvdPkFromHL:count 	1075
attr interpolationmode  none
attr source  packetReceivedFromUpper
attr title  "packets received from higher layer, count"
scalar LothianBusNet.ap[5].wlan[0].mac 	rcvdPkFromHL:sum(packetBytes) 	83850
attr interpolationmode  none
attr source  packetReceivedFromUpper
attr title  "packets received from higher layer, sum(packetBytes)"
scalar LothianBusNet.ap[5].wlan[0].mac 	sentDownPk:count 	1075
attr interpolationmode  none
attr source  packetSentToLower
attr title  "packets sent to lower layer, count"
scalar LothianBusNet.ap[5].wlan[0].mac 	sentDownPk:sum(packetBytes) 	83850
attr interpolationmode  none
attr source  packetSentToLower
attr title  "packets sent to lower layer, sum(packetBytes)"
scalar LothianBusNet.ap[5].wlan[0].mac 	passedUpPk:count 	0
attr interpolationmode  none
attr source  packetSentToUpper
attr title  "packets passed to higher layer, count"
scalar LothianBusNet.ap[5].wlan[0].mac 	passedUpPk:sum(packetBytes) 	0
attr interpolationmode  none
attr source  packetSentToUpper
attr title  "packets passed to higher layer, sum(packetBytes)"
scalar LothianBusNet.ap[5].wlan[0].radio 	lossRate:min 	nan
attr interpolationmode  backward-sample-hold
attr title  "packet loss rate, min"
scalar LothianBusNet.ap[5].wlan[0].radio 	lossRate:max 	nan
attr interpolationmode  backward-sample-hold
attr title  "packet loss rate, max"
scalar LothianBusNet.ap[5].wlan[0].radio 	lossRate:timeavg 	nan
attr interpolationmode  backward-sample-hold
attr title  "packet loss rate, timeavg"
scalar LothianBusNet.ap[5].wlan[0].radio 	radioState:count 	2151
attr interpolationmode  sample-hold
attr title  "radio state (enum), count"
statistic LothianBusNet.ap[5].wlan[0].radio 	channelNo:histogram
field count 1
field mean 0
field stddev nan
field sum 0
field sqrsum 0
field min 0
field max 0
attr interpolationmode  sample-hold
attr title  "channel no, histogram"
bin	-INF	0
bin	-0.5	0
bin	-0.46666666666667	0
bin	-0.43333333333333	0
bin	-0.4	0
bin	-0.36666666666667	0
bin	-0.33333333333333	0
bin	-0.3	0
bin	-0.26666666666667	0
bin	-0.23333333333333	0
bin	-0.2	0
bin	-0.16666666666667	0
bin	-0.13333333333333	0
bin	-0.1	0
bin	-0.066666666666667	0
bin	-0.033333333333333	0
bin	0	1
bin	0.033333333333333	0
bin	0.066666666666667	0
bin	0.1	0
bin	0.13333333333333	0
bin	0.16666666666667	0
bin	0.2	0
bin	0.23333333333333	0
bin	0.26666666666667	0
bin	0.3	0
bin	0.33333333333333	0
bin	0.36666666666667	0
bin	0.4	0
bin	0.43333333333333	0
bin	0.46666666666667	0
bin	0.5	0
scalar LothianBusNet.ap[5].wlan[0].radio 	bitrate:min 	54000000
attr interpolationmode  sample-hold
attr title  "tx bitrate, min"
attr unit  bps
scalar LothianBusNet.ap[5].wlan[0].radio 	bitrate:max 	54000000
attr interpolationmode  sample-hold
attr title  "tx bitrate, max"
attr unit  bps
scalar LothianBusNet.ap[5].wlan[0].radio 	bitrate:timeavg 	54000000
attr interpolationmode  sample-hold
attr title  "tx bitrate, timeavg"
attr unit  bps
scalar LothianBusNet.ap[5].eth[0].mac 	"simulated time" 	107.4598286793
scalar LothianBusNet.ap[5].eth[0].mac 	full-duplex 	1
scalar LothianBusNet.ap[5].eth[0].mac 	"frames/sec sent" 	0
scalar LothianBusNet.ap[5].eth[0].mac 	"frames/sec rcvd" 	0
scalar LothianBusNet.ap[5].eth[0].mac 	"bits/sec sent" 	0
scalar LothianBusNet.ap[5].eth[0].mac 	"bits/sec rcvd" 	0
scalar LothianBusNet.ap[5].eth[0].mac 	"rx channel idle (%)" 	100
scalar LothianBusNet.ap[5].eth[0].mac 	"rx channel utilization (%)" 	0
scalar LothianBusNet.ap[5].eth[0].mac 	droppedPkNotForUs:count 	0
attr interpolationmode  none
attr source  dropPkNotForUs
attr title  "packets dropped/not for us, count"
scalar LothianBusNet.ap[5].eth[0].mac 	droppedPkNotForUs:sum(packetBytes) 	0
attr interpolationmode  none
attr source  dropPkNotForUs
attr title  "packets dropped/not for us, sum(packetBytes)"
scalar LothianBusNet.ap[5].eth[0].mac 	droppedPkBitError:count 	0
attr interpolationmode  none
attr source  dropPkBitError
attr title  "packets dropped/bit error, count"
scalar LothianBusNet.ap[5].eth[0].mac 	droppedPkBitError:sum(packetBytes) 	0
attr interpolationmode  none
attr source  dropPkBitError
attr title  "packets dropped/bit error, sum(packetBytes)"
scalar LothianBusNet.ap[5].eth[0].mac 	droppedPkIfaceDown:count 	0
attr interpolationmode  none
attr source  dropPkIfaceDown
attr title  "packets dropped/interface down, count"
scalar LothianBusNet.ap[5].eth[0].mac 	droppedPkIfaceDown:sum(packetBytes) 	0
attr interpolationmode  none
attr source  dropPkIfaceDown
attr title  "packets dropped/interface down, sum(packetBytes)"
scalar LothianBusNet.ap[5].eth[0].mac 	rxPkFromHL:count 	0
attr interpolationmode  none
attr source  rxPkFromHL
attr title  "packet bytes from higher layer, count"
scalar LothianBusNet.ap[5].eth[0].mac 	rxPkFromHL:sum(packetBytes) 	0
attr interpolationmode  none
attr source  rxPkFromHL
attr title  "packet bytes from higher layer, sum(packetBytes)"
scalar LothianBusNet.ap[5].eth[0].mac 	rxPausePkUnits:count 	0
attr interpolationmode  none
attr title  "pause units received, count"
scalar LothianBusNet.ap[5].eth[0].mac 	rxPausePkUnits:sum 	0
attr interpolationmode  none
attr title  "pause units received, sum"
scalar LothianBusNet.ap[5].eth[0].mac 	txPausePkUnits:count 	0
attr interpolationmode  none
attr title  "pause units sent, count"
scalar LothianBusNet.ap[5].eth[0].mac 	txPausePkUnits:sum 	0
attr interpolationmode  none
attr title  "pause units sent, sum"
scalar LothianBusNet.ap[5].eth[0].mac 	rxPkOk:count 	0
attr interpolationmode  none
attr source  rxPkOk
attr title  "packets received OK, count"
scalar LothianBusNet.ap[5].eth[0].mac 	rxPkOk:sum(packetBytes) 	0
attr interpolationmode  none
attr source  rxPkOk
attr title  "packets received OK, sum(packetBytes)"
scalar LothianBusNet.ap[5].eth[0].mac 	txPk:count 	0
attr interpolationmode  none
attr source  txPk
attr title  "packets transmitted, count"
scalar LothianBusNet.ap[5].eth[0].mac 	txPk:sum(packetBytes) 	0
attr interpolationmode  none
attr source  txPk
attr title  "packets transmitted, sum(packetBytes)"
scalar LothianBusNet.ap[5].eth[0].mac 	passedUpPk:count 	0
attr interpolationmode  none
attr source  packetSentToUpper
attr title  "packets passed to higher layer, count"
scalar LothianBusNet.ap[5].eth[0].mac 	passedUpPk:sum(packetBytes) 	0
attr interpolationmode  none
attr source  packetSentToUpper
attr title  "packets passed to higher layer, sum(packetBytes)"
scalar LothianBusNet.ap[6].relayUnit 	"processed frames" 	0
scalar LothianBusNet.ap[6].relayUnit 	"dropped frames" 	0
scalar LothianBusNet.ap[6].relayUnit 	droppedBytes:count 	0
attr title  "Dropped bytes, count"
scalar LothianBusNet.ap[6].relayUnit 	droppedBytes:sum 	0
attr title  "Dropped bytes, sum"
scalar LothianBusNet.ap[6].relayUnit 	processedBytes:count 	0
attr title  "Processed bytes, count"
scalar LothianBusNet.ap[6].relayUnit 	processedBytes:sum 	0
attr title  "Processed bytes, sum"
scalar LothianBusNet.ap[6].relayUnit 	usedBufferBytes:max 	nan
attr title  "Used buffer bytes, max"
scalar LothianBusNet.ap[6].relayUnit 	usedBufferBytes:timeavg 	nan
attr title  "Used buffer bytes, timeavg"
scalar LothianBusNet.ap[6].wlan[0].mgmt 	dropPkByQueue:count 	0
attr interpolationmode  none
attr source  dropPkByQueue
attr title  "packets dropped by queue, count"
scalar LothianBusNet.ap[6].wlan[0].mgmt 	dropPkByQueue:sum(packetBytes) 	0
attr interpolationmode  none
attr source  dropPkByQueue
attr title  "packets dropped by queue, sum(packetBytes)"
scalar LothianBusNet.ap[6].wlan[0].mgmt 	dataQueueLen:max 	0
attr interpolationmode  sample-hold
attr title  "data queue length, max"
scalar LothianBusNet.ap[6].wlan[0].mgmt 	dataQueueLen:timeavg 	0
attr interpolationmode  sample-hold
attr title  "data queue length, timeavg"
scalar LothianBusNet.ap[6].wlan[0].mac 	"number of received packets" 	0
scalar LothianBusNet.ap[6].wlan[0].mac 	"number of collisions" 	0
scalar LothianBusNet.ap[6].wlan[0].mac 	"number of internal collisions" 	0
scalar LothianBusNet.ap[6].wlan[0].mac 	"number of retry for AC 0" 	0
scalar LothianBusNet.ap[6].wlan[0].mac 	"sent and received bits" 	670176
scalar LothianBusNet.ap[6].wlan[0].mac 	"sent packet within AC 0" 	0
scalar LothianBusNet.ap[6].wlan[0].mac 	"sent in TXOP " 	0
scalar LothianBusNet.ap[6].wlan[0].mac 	"sentWithoutRetry AC 0" 	0
scalar LothianBusNet.ap[6].wlan[0].mac 	"numGivenUp AC 0" 	0
scalar LothianBusNet.ap[6].wlan[0].mac 	"numDropped AC 0" 	0
scalar LothianBusNet.ap[6].wlan[0].mac 	rcvdPkFromLL:count 	0
attr interpolationmode  none
attr source  packetReceivedFromLower
attr title  "packets received from lower layer, count"
scalar LothianBusNet.ap[6].wlan[0].mac 	rcvdPkFromLL:sum(packetBytes) 	0
attr interpolationmode  none
attr source  packetReceivedFromLower
attr title  "packets received from lower layer, sum(packetBytes)"
scalar LothianBusNet.ap[6].wlan[0].mac 	rcvdPkFromHL:count 	1074
attr interpolationmode  none
attr source  packetReceivedFromUpper
attr title  "packets received from higher layer, count"
scalar LothianBusNet.ap[6].wlan[0].mac 	rcvdPkFromHL:sum(packetBytes) 	83772
attr interpolationmode  none
attr source  packetReceivedFromUpper
attr title  "packets received from higher layer, sum(packetBytes)"
scalar LothianBusNet.ap[6].wlan[0].mac 	sentDownPk:count 	1074
attr interpolationmode  none
attr source  packetSentToLower
attr title  "packets sent to lower layer, count"
scalar LothianBusNet.ap[6].wlan[0].mac 	sentDownPk:sum(packetBytes) 	83772
attr interpolationmode  none
attr source  packetSentToLower
attr title  "packets sent to lower layer, sum(packetBytes)"
scalar LothianBusNet.ap[6].wlan[0].mac 	passedUpPk:count 	0
attr interpolationmode  none
attr source  packetSentToUpper
attr title  "packets passed to higher layer, count"
scalar LothianBusNet.ap[6].wlan[0].mac 	passedUpPk:sum(packetBytes) 	0
attr interpolationmode  none
attr source  packetSentToUpper
attr title  "packets passed to higher layer, sum(packetBytes)"
scalar LothianBusNet.ap[6].wlan[0].radio 	lossRate:min 	nan
attr interpolationmode  backward-sample-hold
attr title  "packet loss rate, min"
scalar LothianBusNet.ap[6].wlan[0].radio 	lossRate:max 	nan
attr interpolationmode  backward-sample-hold
attr title  "packet loss rate, max"
scalar LothianBusNet.ap[6].wlan[0].radio 	lossRate:timeavg 	nan
attr interpolationmode  backward-sample-hold
attr title  "packet loss rate, timeavg"
scalar LothianBusNet.ap[6].wlan[0].radio 	radioState:count 	2149
attr interpolationmode  sample-hold
attr title  "radio state (enum), count"
statistic LothianBusNet.ap[6].wlan[0].radio 	channelNo:histogram
field count 1
field mean 0
field stddev nan
field sum 0
field sqrsum 0
field min 0
field max 0
attr interpolationmode  sample-hold
attr title  "channel no, histogram"
bin	-INF	0
bin	-0.5	0
bin	-0.46666666666667	0
bin	-0.43333333333333	0
bin	-0.4	0
bin	-0.36666666666667	0
bin	-0.33333333333333	0
bin	-0.3	0
bin	-0.26666666666667	0
bin	-0.23333333333333	0
bin	-0.2	0
bin	-0.16666666666667	0
bin	-0.13333333333333	0
bin	-0.1	0
bin	-0.066666666666667	0
bin	-0.033333333333333	0
bin	0	1
bin	0.033333333333333	0
bin	0.066666666666667	0
bin	0.1	0
bin	0.13333333333333	0
bin	0.16666666666667	0
bin	0.2	0
bin	0.23333333333333	0
bin	0.26666666666667	0
bin	0.3	0
bin	0.33333333333333	0
bin	0.36666666666667	0
bin	0.4	0
bin	0.43333333333333	0
bin	0.46666666666667	0
bin	0.5	0
scalar LothianBusNet.ap[6].wlan[0].radio 	bitrate:min 	54000000
attr interpolationmode  sample-hold
attr title  "tx bitrate, min"
attr unit  bps
scalar LothianBusNet.ap[6].wlan[0].radio 	bitrate:max 	54000000
attr interpolationmode  sample-hold
attr title  "tx bitrate, max"
attr unit  bps
scalar LothianBusNet.ap[6].wlan[0].radio 	bitrate:timeavg 	54000000
attr interpolationmode  sample-hold
attr title  "tx bitrate, timeavg"
attr unit  bps
scalar LothianBusNet.ap[6].eth[0].mac 	"simulated time" 	107.4598286793
scalar LothianBusNet.ap[6].eth[0].mac 	full-duplex 	1
scalar LothianBusNet.ap[6].eth[0].mac 	"frames/sec sent" 	0
scalar LothianBusNet.ap[6].eth[0].mac 	"frames/sec rcvd" 	0
scalar LothianBusNet.ap[6].eth[0].mac 	"bits/sec sent" 	0
scalar LothianBusNet.ap[6].eth[0].mac 	"bits/sec rcvd" 	0
scalar LothianBusNet.ap[6].eth[0].mac 	"rx channel idle (%)" 	100
scalar LothianBusNet.ap[6].eth[0].mac 	"rx channel utilization (%)" 	0
scalar LothianBusNet.ap[6].eth[0].mac 	droppedPkNotForUs:count 	0
attr interpolationmode  none
attr source  dropPkNotForUs
attr title  "packets dropped/not for us, count"
scalar LothianBusNet.ap[6].eth[0].mac 	droppedPkNotForUs:sum(packetBytes) 	0
attr interpolationmode  none
attr source  dropPkNotForUs
attr title  "packets dropped/not for us, sum(packetBytes)"
scalar LothianBusNet.ap[6].eth[0].mac 	droppedPkBitError:count 	0
attr interpolationmode  none
attr source  dropPkBitError
attr title  "packets dropped/bit error, count"
scalar LothianBusNet.ap[6].eth[0].mac 	droppedPkBitError:sum(packetBytes) 	0
attr interpolationmode  none
attr source  dropPkBitError
attr title  "packets dropped/bit error, sum(packetBytes)"
scalar LothianBusNet.ap[6].eth[0].mac 	droppedPkIfaceDown:count 	0
attr interpolationmode  none
attr source  dropPkIfaceDown
attr title  "packets dropped/interface down, count"
scalar LothianBusNet.ap[6].eth[0].mac 	droppedPkIfaceDown:sum(packetBytes) 	0
attr interpolationmode  none
attr source  dropPkIfaceDown
attr title  "packets dropped/interface down, sum(packetBytes)"
scalar LothianBusNet.ap[6].eth[0].mac 	rxPkFromHL:count 	0
attr interpolationmode  none
attr source  rxPkFromHL
attr title  "packet bytes from higher layer, count"
scalar LothianBusNet.ap[6].eth[0].mac 	rxPkFromHL:sum(packetBytes) 	0
attr interpolationmode  none
attr source  rxPkFromHL
attr title  "packet bytes from higher layer, sum(packetBytes)"
scalar LothianBusNet.ap[6].eth[0].mac 	rxPausePkUnits:count 	0
attr interpolationmode  none
attr title  "pause units received, count"
scalar LothianBusNet.ap[6].eth[0].mac 	rxPausePkUnits:sum 	0
attr interpolationmode  none
attr title  "pause units received, sum"
scalar LothianBusNet.ap[6].eth[0].mac 	txPausePkUnits:count 	0
attr interpolationmode  none
attr title  "pause units sent, count"
scalar LothianBusNet.ap[6].eth[0].mac 	txPausePkUnits:sum 	0
attr interpolationmode  none
attr title  "pause units sent, sum"
scalar LothianBusNet.ap[6].eth[0].mac 	rxPkOk:count 	0
attr interpolationmode  none
attr source  rxPkOk
attr title  "packets received OK, count"
scalar LothianBusNet.ap[6].eth[0].mac 	rxPkOk:sum(packetBytes) 	0
attr interpolationmode  none
attr source  rxPkOk
attr title  "packets received OK, sum(packetBytes)"
scalar LothianBusNet.ap[6].eth[0].mac 	txPk:count 	0
attr interpolationmode  none
attr source  txPk
attr title  "packets transmitted, count"
scalar LothianBusNet.ap[6].eth[0].mac 	txPk:sum(packetBytes) 	0
attr interpolationmode  none
attr source  txPk
attr title  "packets transmitted, sum(packetBytes)"
scalar LothianBusNet.ap[6].eth[0].mac 	passedUpPk:count 	0
attr interpolationmode  none
attr source  packetSentToUpper
attr title  "packets passed to higher layer, count"
scalar LothianBusNet.ap[6].eth[0].mac 	passedUpPk:sum(packetBytes) 	0
attr interpolationmode  none
attr source  packetSentToUpper
attr title  "packets passed to higher layer, sum(packetBytes)"
scalar LothianBusNet.ap[7].relayUnit 	"processed frames" 	0
scalar LothianBusNet.ap[7].relayUnit 	"dropped frames" 	0
scalar LothianBusNet.ap[7].relayUnit 	droppedBytes:count 	0
attr title  "Dropped bytes, count"
scalar LothianBusNet.ap[7].relayUnit 	droppedBytes:sum 	0
attr title  "Dropped bytes, sum"
scalar LothianBusNet.ap[7].relayUnit 	processedBytes:count 	0
attr title  "Processed bytes, count"
scalar LothianBusNet.ap[7].relayUnit 	processedBytes:sum 	0
attr title  "Processed bytes, sum"
scalar LothianBusNet.ap[7].relayUnit 	usedBufferBytes:max 	nan
attr title  "Used buffer bytes, max"
scalar LothianBusNet.ap[7].relayUnit 	usedBufferBytes:timeavg 	nan
attr title  "Used buffer bytes, timeavg"
scalar LothianBusNet.ap[7].wlan[0].mgmt 	dropPkByQueue:count 	0
attr interpolationmode  none
attr source  dropPkByQueue
attr title  "packets dropped by queue, count"
scalar LothianBusNet.ap[7].wlan[0].mgmt 	dropPkByQueue:sum(packetBytes) 	0
attr interpolationmode  none
attr source  dropPkByQueue
attr title  "packets dropped by queue, sum(packetBytes)"
scalar LothianBusNet.ap[7].wlan[0].mgmt 	dataQueueLen:max 	0
attr interpolationmode  sample-hold
attr title  "data queue length, max"
scalar LothianBusNet.ap[7].wlan[0].mgmt 	dataQueueLen:timeavg 	0
attr interpolationmode  sample-hold
attr title  "data queue length, timeavg"
scalar LothianBusNet.ap[7].wlan[0].mac 	"number of received packets" 	0
scalar LothianBusNet.ap[7].wlan[0].mac 	"number of collisions" 	0
scalar LothianBusNet.ap[7].wlan[0].mac 	"number of internal collisions" 	0
scalar LothianBusNet.ap[7].wlan[0].mac 	"number of retry for AC 0" 	0
scalar LothianBusNet.ap[7].wlan[0].mac 	"sent and received bits" 	670800
scalar LothianBusNet.ap[7].wlan[0].mac 	"sent packet within AC 0" 	0
scalar LothianBusNet.ap[7].wlan[0].mac 	"sent in TXOP " 	0
scalar LothianBusNet.ap[7].wlan[0].mac 	"sentWithoutRetry AC 0" 	0
scalar LothianBusNet.ap[7].wlan[0].mac 	"numGivenUp AC 0" 	0
scalar LothianBusNet.ap[7].wlan[0].mac 	"numDropped AC 0" 	0
scalar LothianBusNet.ap[7].wlan[0].mac 	rcvdPkFromLL:count 	0
attr interpolationmode  none
attr source  packetReceivedFromLower
attr title  "packets received from lower layer, count"
scalar LothianBusNet.ap[7].wlan[0].mac 	rcvdPkFromLL:sum(packetBytes) 	0
attr interpolationmode  none
attr source  packetReceivedFromLower
attr title  "packets received from lower layer, sum(packetBytes)"
scalar LothianBusNet.ap[7].wlan[0].mac 	rcvdPkFromHL:count 	1075
attr interpolationmode  none
attr source  packetReceivedFromUpper
attr title  "packets received from higher layer, count"
scalar LothianBusNet.ap[7].wlan[0].mac 	rcvdPkFromHL:sum(packetBytes) 	83850
attr interpolationmode  none
attr source  packetReceivedFromUpper
attr title  "packets received from higher layer, sum(packetBytes)"
scalar LothianBusNet.ap[7].wlan[0].mac 	sentDownPk:count 	1075
attr interpolationmode  none
attr source  packetSentToLower
attr title  "packets sent to lower layer, count"
scalar LothianBusNet.ap[7].wlan[0].mac 	sentDownPk:sum(packetBytes) 	83850
attr interpolationmode  none
attr source  packetSentToLower
attr title  "packets sent to lower layer, sum(packetBytes)"
scalar LothianBusNet.ap[7].wlan[0].mac 	passedUpPk:count 	0
attr interpolationmode  none
attr source  packetSentToUpper
attr title  "packets passed to higher layer, count"
scalar LothianBusNet.ap[7].wlan[0].mac 	passedUpPk:sum(packetBytes) 	0
attr interpolationmode  none
attr source  packetSentToUpper
attr title  "packets passed to higher layer, sum(packetBytes)"
scalar LothianBusNet.ap[7].wlan[0].radio 	lossRate:min 	nan
attr interpolationmode  backward-sample-hold
attr title  "packet loss rate, min"
scalar LothianBusNet.ap[7].wlan[0].radio 	lossRate:max 	nan
attr interpolationmode  backward-sample-hold
attr title  "packet loss rate, max"
scalar LothianBusNet.ap[7].wlan[0].radio 	lossRate:timeavg 	nan
attr interpolationmode  backward-sample-hold
attr title  "packet loss rate, timeavg"
scalar LothianBusNet.ap[7].wlan[0].radio 	radioState:count 	2151
attr interpolationmode  sample-hold
attr title  "radio state (enum), count"
statistic LothianBusNet.ap[7].wlan[0].radio 	channelNo:histogram
field count 1
field mean 0
field stddev nan
field sum 0
field sqrsum 0
field min 0
field max 0
attr interpolationmode  sample-hold
attr title  "channel no, histogram"
bin	-INF	0
bin	-0.5	0
bin	-0.46666666666667	0
bin	-0.43333333333333	0
bin	-0.4	0
bin	-0.36666666666667	0
bin	-0.33333333333333	0
bin	-0.3	0
bin	-0.26666666666667	0
bin	-0.23333333333333	0
bin	-0.2	0
bin	-0.16666666666667	0
bin	-0.13333333333333	0
bin	-0.1	0
bin	-0.066666666666667	0
bin	-0.033333333333333	0
bin	0	1
bin	0.033333333333333	0
bin	0.066666666666667	0
bin	0.1	0
bin	0.13333333333333	0
bin	0.16666666666667	0
bin	0.2	0
bin	0.23333333333333	0
bin	0.26666666666667	0
bin	0.3	0
bin	0.33333333333333	0
bin	0.36666666666667	0
bin	0.4	0
bin	0.43333333333333	0
bin	0.46666666666667	0
bin	0.5	0
scalar LothianBusNet.ap[7].wlan[0].radio 	bitrate:min 	54000000
attr interpolationmode  sample-hold
attr title  "tx bitrate, min"
attr unit  bps
scalar LothianBusNet.ap[7].wlan[0].radio 	bitrate:max 	54000000
attr interpolationmode  sample-hold
attr title  "tx bitrate, max"
attr unit  bps
scalar LothianBusNet.ap[7].wlan[0].radio 	bitrate:timeavg 	54000000
attr interpolationmode  sample-hold
attr title  "tx bitrate, timeavg"
attr unit  bps
scalar LothianBusNet.ap[7].eth[0].mac 	"simulated time" 	107.4598286793
scalar LothianBusNet.ap[7].eth[0].mac 	full-duplex 	1
scalar LothianBusNet.ap[7].eth[0].mac 	"frames/sec sent" 	0
scalar LothianBusNet.ap[7].eth[0].mac 	"frames/sec rcvd" 	0
scalar LothianBusNet.ap[7].eth[0].mac 	"bits/sec sent" 	0
scalar LothianBusNet.ap[7].eth[0].mac 	"bits/sec rcvd" 	0
scalar LothianBusNet.ap[7].eth[0].mac 	"rx channel idle (%)" 	100
scalar LothianBusNet.ap[7].eth[0].mac 	"rx channel utilization (%)" 	0
scalar LothianBusNet.ap[7].eth[0].mac 	droppedPkNotForUs:count 	0
attr interpolationmode  none
attr source  dropPkNotForUs
attr title  "packets dropped/not for us, count"
scalar LothianBusNet.ap[7].eth[0].mac 	droppedPkNotForUs:sum(packetBytes) 	0
attr interpolationmode  none
attr source  dropPkNotForUs
attr title  "packets dropped/not for us, sum(packetBytes)"
scalar LothianBusNet.ap[7].eth[0].mac 	droppedPkBitError:count 	0
attr interpolationmode  none
attr source  dropPkBitError
attr title  "packets dropped/bit error, count"
scalar LothianBusNet.ap[7].eth[0].mac 	droppedPkBitError:sum(packetBytes) 	0
attr interpolationmode  none
attr source  dropPkBitError
attr title  "packets dropped/bit error, sum(packetBytes)"
scalar LothianBusNet.ap[7].eth[0].mac 	droppedPkIfaceDown:count 	0
attr interpolationmode  none
attr source  dropPkIfaceDown
attr title  "packets dropped/interface down, count"
scalar LothianBusNet.ap[7].eth[0].mac 	droppedPkIfaceDown:sum(packetBytes) 	0
attr interpolationmode  none
attr source  dropPkIfaceDown
attr title  "packets dropped/interface down, sum(packetBytes)"
scalar LothianBusNet.ap[7].eth[0].mac 	rxPkFromHL:count 	0
attr interpolationmode  none
attr source  rxPkFromHL
attr title  "packet bytes from higher layer, count"
scalar LothianBusNet.ap[7].eth[0].mac 	rxPkFromHL:sum(packetBytes) 	0
attr interpolationmode  none
attr source  rxPkFromHL
attr title  "packet bytes from higher layer, sum(packetBytes)"
scalar LothianBusNet.ap[7].eth[0].mac 	rxPausePkUnits:count 	0
attr interpolationmode  none
attr title  "pause units received, count"
scalar LothianBusNet.ap[7].eth[0].mac 	rxPausePkUnits:sum 	0
attr interpolationmode  none
attr title  "pause units received, sum"
scalar LothianBusNet.ap[7].eth[0].mac 	txPausePkUnits:count 	0
attr interpolationmode  none
attr title  "pause units sent, count"
scalar LothianBusNet.ap[7].eth[0].mac 	txPausePkUnits:sum 	0
attr interpolationmode  none
attr title  "pause units sent, sum"
scalar LothianBusNet.ap[7].eth[0].mac 	rxPkOk:count 	0
attr interpolationmode  none
attr source  rxPkOk
attr title  "packets received OK, count"
scalar LothianBusNet.ap[7].eth[0].mac 	rxPkOk:sum(packetBytes) 	0
attr interpolationmode  none
attr source  rxPkOk
attr title  "packets received OK, sum(packetBytes)"
scalar LothianBusNet.ap[7].eth[0].mac 	txPk:count 	0
attr interpolationmode  none
attr source  txPk
attr title  "packets transmitted, count"
scalar LothianBusNet.ap[7].eth[0].mac 	txPk:sum(packetBytes) 	0
attr interpolationmode  none
attr source  txPk
attr title  "packets transmitted, sum(packetBytes)"
scalar LothianBusNet.ap[7].eth[0].mac 	passedUpPk:count 	0
attr interpolationmode  none
attr source  packetSentToUpper
attr title  "packets passed to higher layer, count"
scalar LothianBusNet.ap[7].eth[0].mac 	passedUpPk:sum(packetBytes) 	0
attr interpolationmode  none
attr source  packetSentToUpper
attr title  "packets passed to higher layer, sum(packetBytes)"
scalar LothianBusNet.ap[8].relayUnit 	"processed frames" 	0
scalar LothianBusNet.ap[8].relayUnit 	"dropped frames" 	0
scalar LothianBusNet.ap[8].relayUnit 	droppedBytes:count 	0
attr title  "Dropped bytes, count"
scalar LothianBusNet.ap[8].relayUnit 	droppedBytes:sum 	0
attr title  "Dropped bytes, sum"
scalar LothianBusNet.ap[8].relayUnit 	processedBytes:count 	0
attr title  "Processed bytes, count"
scalar LothianBusNet.ap[8].relayUnit 	processedBytes:sum 	0
attr title  "Processed bytes, sum"
scalar LothianBusNet.ap[8].relayUnit 	usedBufferBytes:max 	nan
attr title  "Used buffer bytes, max"
scalar LothianBusNet.ap[8].relayUnit 	usedBufferBytes:timeavg 	nan
attr title  "Used buffer bytes, timeavg"
scalar LothianBusNet.ap[8].wlan[0].mgmt 	dropPkByQueue:count 	0
attr interpolationmode  none
attr source  dropPkByQueue
attr title  "packets dropped by queue, count"
scalar LothianBusNet.ap[8].wlan[0].mgmt 	dropPkByQueue:sum(packetBytes) 	0
attr interpolationmode  none
attr source  dropPkByQueue
attr title  "packets dropped by queue, sum(packetBytes)"
scalar LothianBusNet.ap[8].wlan[0].mgmt 	dataQueueLen:max 	0
attr interpolationmode  sample-hold
attr title  "data queue length, max"
scalar LothianBusNet.ap[8].wlan[0].mgmt 	dataQueueLen:timeavg 	0
attr interpolationmode  sample-hold
attr title  "data queue length, timeavg"
scalar LothianBusNet.ap[8].wlan[0].mac 	"number of received packets" 	0
scalar LothianBusNet.ap[8].wlan[0].mac 	"number of collisions" 	0
scalar LothianBusNet.ap[8].wlan[0].mac 	"number of internal collisions" 	0
scalar LothianBusNet.ap[8].wlan[0].mac 	"number of retry for AC 0" 	0
scalar LothianBusNet.ap[8].wlan[0].mac 	"sent and received bits" 	670176
scalar LothianBusNet.ap[8].wlan[0].mac 	"sent packet within AC 0" 	0
scalar LothianBusNet.ap[8].wlan[0].mac 	"sent in TXOP " 	0
scalar LothianBusNet.ap[8].wlan[0].mac 	"sentWithoutRetry AC 0" 	0
scalar LothianBusNet.ap[8].wlan[0].mac 	"numGivenUp AC 0" 	0
scalar LothianBusNet.ap[8].wlan[0].mac 	"numDropped AC 0" 	0
scalar LothianBusNet.ap[8].wlan[0].mac 	rcvdPkFromLL:count 	1074
attr interpolationmode  none
attr source  packetReceivedFromLower
attr title  "packets received from lower layer, count"
scalar LothianBusNet.ap[8].wlan[0].mac 	rcvdPkFromLL:sum(packetBytes) 	83772
attr interpolationmode  none
attr source  packetReceivedFromLower
attr title  "packets received from lower layer, sum(packetBytes)"
scalar LothianBusNet.ap[8].wlan[0].mac 	rcvdPkFromHL:count 	1074
attr interpolationmode  none
attr source  packetReceivedFromUpper
attr title  "packets received from higher layer, count"
scalar LothianBusNet.ap[8].wlan[0].mac 	rcvdPkFromHL:sum(packetBytes) 	83772
attr interpolationmode  none
attr source  packetReceivedFromUpper
attr title  "packets received from higher layer, sum(packetBytes)"
scalar LothianBusNet.ap[8].wlan[0].mac 	sentDownPk:count 	1074
attr interpolationmode  none
attr source  packetSentToLower
attr title  "packets sent to lower layer, count"
scalar LothianBusNet.ap[8].wlan[0].mac 	sentDownPk:sum(packetBytes) 	83772
attr interpolationmode  none
attr source  packetSentToLower
attr title  "packets sent to lower layer, sum(packetBytes)"
scalar LothianBusNet.ap[8].wlan[0].mac 	passedUpPk:count 	1074
attr interpolationmode  none
attr source  packetSentToUpper
attr title  "packets passed to higher layer, count"
scalar LothianBusNet.ap[8].wlan[0].mac 	passedUpPk:sum(packetBytes) 	83772
attr interpolationmode  none
attr source  packetSentToUpper
attr title  "packets passed to higher layer, sum(packetBytes)"
scalar LothianBusNet.ap[8].wlan[0].radio 	lossRate:min 	0
attr interpolationmode  backward-sample-hold
attr title  "packet loss rate, min"
scalar LothianBusNet.ap[8].wlan[0].radio 	lossRate:max 	0
attr interpolationmode  backward-sample-hold
attr title  "packet loss rate, max"
scalar LothianBusNet.ap[8].wlan[0].radio 	lossRate:timeavg 	0
attr interpolationmode  backward-sample-hold
attr title  "packet loss rate, timeavg"
scalar LothianBusNet.ap[8].wlan[0].radio 	radioState:count 	4297
attr interpolationmode  sample-hold
attr title  "radio state (enum), count"
statistic LothianBusNet.ap[8].wlan[0].radio 	channelNo:histogram
field count 1
field mean 0
field stddev nan
field sum 0
field sqrsum 0
field min 0
field max 0
attr interpolationmode  sample-hold
attr title  "channel no, histogram"
bin	-INF	0
bin	-0.5	0
bin	-0.46666666666667	0
bin	-0.43333333333333	0
bin	-0.4	0
bin	-0.36666666666667	0
bin	-0.33333333333333	0
bin	-0.3	0
bin	-0.26666666666667	0
bin	-0.23333333333333	0
bin	-0.2	0
bin	-0.16666666666667	0
bin	-0.13333333333333	0
bin	-0.1	0
bin	-0.066666666666667	0
bin	-0.033333333333333	0
bin	0	1
bin	0.033333333333333	0
bin	0.066666666666667	0
bin	0.1	0
bin	0.13333333333333	0
bin	0.16666666666667	0
bin	0.2	0
bin	0.23333333333333	0
bin	0.26666666666667	0
bin	0.3	0
bin	0.33333333333333	0
bin	0.36666666666667	0
bin	0.4	0
bin	0.43333333333333	0
bin	0.46666666666667	0
bin	0.5	0
scalar LothianBusNet.ap[8].wlan[0].radio 	bitrate:min 	54000000
attr interpolationmode  sample-hold
attr title  "tx bitrate, min"
attr unit  bps
scalar LothianBusNet.ap[8].wlan[0].radio 	bitrate:max 	54000000
attr interpolationmode  sample-hold
attr title  "tx bitrate, max"
attr unit  bps
scalar LothianBusNet.ap[8].wlan[0].radio 	bitrate:timeavg 	54000000
attr interpolationmode  sample-hold
attr title  "tx bitrate, timeavg"
attr unit  bps
scalar LothianBusNet.ap[8].eth[0].mac 	"simulated time" 	107.4598286793
scalar LothianBusNet.ap[8].eth[0].mac 	full-duplex 	1
scalar LothianBusNet.ap[8].eth[0].mac 	"frames/sec sent" 	0
scalar LothianBusNet.ap[8].eth[0].mac 	"frames/sec rcvd" 	0
scalar LothianBusNet.ap[8].eth[0].mac 	"bits/sec sent" 	0
scalar LothianBusNet.ap[8].eth[0].mac 	"bits/sec rcvd" 	0
scalar LothianBusNet.ap[8].eth[0].mac 	"rx channel idle (%)" 	100
scalar LothianBusNet.ap[8].eth[0].mac 	"rx channel utilization (%)" 	0
scalar LothianBusNet.ap[8].eth[0].mac 	droppedPkNotForUs:count 	0
attr interpolationmode  none
attr source  dropPkNotForUs
attr title  "packets dropped/not for us, count"
[...]
attr source  decapPk
attr title  "packets decapsulated, count"
scalar LothianBusNet.router.eth[7].encap 	decapPk:sum(packetBytes) 	0
attr interpolationmode  none
attr source  decapPk
attr title  "packets decapsulated, sum(packetBytes)"
scalar LothianBusNet.router.eth[7].encap 	encapPk:count 	0
attr interpolationmode  none
attr source  encapPk
attr title  "packets encapsulated, count"
scalar LothianBusNet.router.eth[7].encap 	encapPk:sum(packetBytes) 	0
attr interpolationmode  none
attr source  encapPk
attr title  "packets encapsulated, sum(packetBytes)"
scalar LothianBusNet.router.eth[8].mac 	"simulated time" 	107.4598286793
scalar LothianBusNet.router.eth[8].mac 	full-duplex 	1
scalar LothianBusNet.router.eth[8].mac 	"frames/sec sent" 	0
scalar LothianBusNet.router.eth[8].mac 	"frames/sec rcvd" 	0
scalar LothianBusNet.router.eth[8].mac 	"bits/sec sent" 	0
scalar LothianBusNet.router.eth[8].mac 	"bits/sec rcvd" 	0
scalar LothianBusNet.router.eth[8].mac 	"rx channel idle (%)" 	100
scalar LothianBusNet.router.eth[8].mac 	"rx channel utilization (%)" 	0
scalar LothianBusNet.router.eth[8].mac 	droppedPkNotForUs:count 	0
attr interpolationmode  none
attr source  dropPkNotForUs
attr title  "packets dropped/not for us, count"
scalar LothianBusNet.router.eth[8].mac 	droppedPkNotForUs:sum(packetBytes) 	0
attr interpolationmode  none
attr source  dropPkNotForUs
attr title  "packets dropped/not for us, sum(packetBytes)"
scalar LothianBusNet.router.eth[8].mac 	droppedPkBitError:count 	0
attr interpolationmode  none
attr source  dropPkBitError
attr title  "packets dropped/bit error, count"
scalar LothianBusNet.router.eth[8].mac 	droppedPkBitError:sum(packetBytes) 	0
attr interpolationmode  none
attr source  dropPkBitError
attr title  "packets dropped/bit error, sum(packetBytes)"
scalar LothianBusNet.router.eth[8].mac 	droppedPkIfaceDown:count 	0
attr interpolationmode  none
attr source  dropPkIfaceDown
attr title  "packets dropped/interface down, count"
scalar LothianBusNet.router.eth[8].mac 	droppedPkIfaceDown:sum(packetBytes) 	0
attr interpolationmode  none
attr source  dropPkIfaceDown
attr title  "packets dropped/interface down, sum(packetBytes)"
scalar LothianBusNet.router.eth[8].mac 	rxPkFromHL:count 	0
attr interpolationmode  none
attr source  rxPkFromHL
attr title  "packet bytes from higher layer, count"
scalar LothianBusNet.router.eth[8].mac 	rxPkFromHL:sum(packetBytes) 	0
attr interpolationmode  none
attr source  rxPkFromHL
attr title  "packet bytes from higher layer, sum(packetBytes)"
scalar LothianBusNet.router.eth[8].mac 	rxPausePkUnits:count 	0
attr interpolationmode  none
attr title  "pause units received, count"
scalar LothianBusNet.router.eth[8].mac 	rxPausePkUnits:sum 	0
attr interpolationmode  none
attr title  "pause units received, sum"
scalar LothianBusNet.router.eth[8].mac 	txPausePkUnits:count 	0
attr interpolationmode  none
attr title  "pause units sent, count"
scalar LothianBusNet.router.eth[8].mac 	txPausePkUnits:sum 	0
attr interpolationmode  none
attr title  "pause units sent, sum"
scalar LothianBusNet.router.eth[8].mac 	rxPkOk:count 	0
attr interpolationmode  none
attr source  rxPkOk
attr title  "packets received OK, count"
scalar LothianBusNet.router.eth[8].mac 	rxPkOk:sum(packetBytes) 	0
attr interpolationmode  none
attr source  rxPkOk
attr title  "packets received OK, sum(packetBytes)"
scalar LothianBusNet.router.eth[8].mac 	txPk:count 	0
attr interpolationmode  none
attr source  txPk
attr title  "packets transmitted, count"
scalar LothianBusNet.router.eth[8].mac 	txPk:sum(packetBytes) 	0
attr interpolationmode  none
attr source  txPk
attr title  "packets transmitted, sum(packetBytes)"
scalar LothianBusNet.router.eth[8].mac 	passedUpPk:count 	0
attr interpolationmode  none
attr source  packetSentToUpper
attr title  "packets passed to higher layer, count"
scalar LothianBusNet.router.eth[8].mac 	passedUpPk:sum(packetBytes) 	0
attr interpolationmode  none
attr source  packetSentToUpper
attr title  "packets passed to higher layer, sum(packetBytes)"
scalar LothianBusNet.router.eth[8].encap 	pauseSent:count 	0
attr title  "pause sent, count"
scalar LothianBusNet.router.eth[8].encap 	pauseSent:sum 	0
attr title  "pause sent, sum"
scalar LothianBusNet.router.eth[8].encap 	decapPk:count 	0
attr interpolationmode  none
attr source  decapPk
attr title  "packets decapsulated, count"
scalar LothianBusNet.router.eth[8].encap 	decapPk:sum(packetBytes) 	0
attr interpolationmode  none
attr source  decapPk
attr title  "packets decapsulated, sum(packetBytes)"
scalar LothianBusNet.router.eth[8].encap 	encapPk:count 	0
attr interpolationmode  none
attr source  encapPk
attr title  "packets encapsulated, count"
scalar LothianBusNet.router.eth[8].encap 	encapPk:sum(packetBytes) 	0
attr interpolationmode  none
attr source  encapPk
attr title  "packets encapsulated, sum(packetBytes)"
scalar LothianBusNet.router.eth[9].mac 	"simulated time" 	107.4598286793
scalar LothianBusNet.router.eth[9].mac 	full-duplex 	1
scalar LothianBusNet.router.eth[9].mac 	"frames/sec sent" 	0
scalar LothianBusNet.router.eth[9].mac 	"frames/sec rcvd" 	0
scalar LothianBusNet.router.eth[9].mac 	"bits/sec sent" 	0
scalar LothianBusNet.router.eth[9].mac 	"bits/sec rcvd" 	0
scalar LothianBusNet.router.eth[9].mac 	"rx channel idle (%)" 	100
scalar LothianBusNet.router.eth[9].mac 	"rx channel utilization (%)" 	0
scalar LothianBusNet.router.eth[9].mac 	droppedPkNotForUs:count 	0
attr interpolationmode  none
attr source  dropPkNotForUs
attr title  "packets dropped/not for us, count"
scalar LothianBusNet.router.eth[9].mac 	droppedPkNotForUs:sum(packetBytes) 	0
attr interpolationmode  none
attr source  dropPkNotForUs
attr title  "packets dropped/not for us, sum(packetBytes)"
scalar LothianBusNet.router.eth[9].mac 	droppedPkBitError:count 	0
attr interpolationmode  none
attr source  dropPkBitError
attr title  "packets dropped/bit error, count"
scalar LothianBusNet.router.eth[9].mac 	droppedPkBitError:sum(packetBytes) 	0
attr interpolationmode  none
attr source  dropPkBitError
attr title  "packets dropped/bit error, sum(packetBytes)"
scalar LothianBusNet.router.eth[9].mac 	droppedPkIfaceDown:count 	0
attr interpolationmode  none
attr source  dropPkIfaceDown
attr title  "packets dropped/interface down, count"
scalar LothianBusNet.router.eth[9].mac 	droppedPkIfaceDown:sum(packetBytes) 	0
attr interpolationmode  none
attr source  dropPkIfaceDown
attr title  "packets dropped/interface down, sum(packetBytes)"
scalar LothianBusNet.router.eth[9].mac 	rxPkFromHL:count 	0
attr interpolationmode  none
attr source  rxPkFromHL
attr title  "packet bytes from higher layer, count"
scalar LothianBusNet.router.eth[9].mac 	rxPkFromHL:sum(packetBytes) 	0
attr interpolationmode  none
attr source  rxPkFromHL
attr title  "packet bytes from higher layer, sum(packetBytes)"
scalar LothianBusNet.router.eth[9].mac 	rxPausePkUnits:count 	0
attr interpolationmode  none
attr title  "pause units received, count"
scalar LothianBusNet.router.eth[9].mac 	rxPausePkUnits:sum 	0
attr interpolationmode  none
attr title  "pause units received, sum"
scalar LothianBusNet.router.eth[9].mac 	txPausePkUnits:count 	0
attr interpolationmode  none
attr title  "pause units sent, count"
scalar LothianBusNet.router.eth[9].mac 	txPausePkUnits:sum 	0
attr interpolationmode  none
attr title  "pause units sent, sum"
scalar LothianBusNet.router.eth[9].mac 	rxPkOk:count 	0
attr interpolationmode  none
attr source  rxPkOk
attr title  "packets received OK, count"
scalar LothianBusNet.router.eth[9].mac 	rxPkOk:sum(packetBytes) 	0
attr interpolationmode  none
attr source  rxPkOk
attr title  "packets received OK, sum(packetBytes)"
scalar LothianBusNet.router.eth[9].mac 	txPk:count 	0
attr interpolationmode  none
attr source  txPk
attr title  "packets transmitted, count"
scalar LothianBusNet.router.eth[9].mac 	txPk:sum(packetBytes) 	0
attr interpolationmode  none
attr source  txPk
attr title  "packets transmitted, sum(packetBytes)"
scalar LothianBusNet.router.eth[9].mac 	passedUpPk:count 	0
attr interpolationmode  none
attr source  packetSentToUpper
attr title  "packets passed to higher layer, count"
scalar LothianBusNet.router.eth[9].mac 	passedUpPk:sum(packetBytes) 	0
attr interpolationmode  none
attr source  packetSentToUpper
attr title  "packets passed to higher layer, sum(packetBytes)"
scalar LothianBusNet.router.eth[9].encap 	pauseSent:count 	0
attr title  "pause sent, count"
scalar LothianBusNet.router.eth[9].encap 	pauseSent:sum 	0
attr title  "pause sent, sum"
scalar LothianBusNet.router.eth[9].encap 	decapPk:count 	0
attr interpolationmode  none
attr source  decapPk
attr title  "packets decapsulated, count"
scalar LothianBusNet.router.eth[9].encap 	decapPk:sum(packetBytes) 	0
attr interpolationmode  none
attr source  decapPk
attr title  "packets decapsulated, sum(packetBytes)"
scalar LothianBusNet.router.eth[9].encap 	encapPk:count 	0
attr interpolationmode  none
attr source  encapPk
attr title  "packets encapsulated, count"
scalar LothianBusNet.router.eth[9].encap 	encapPk:sum(packetBytes) 	0
attr interpolationmode  none
attr source  encapPk
attr title  "packets encapsulated, sum(packetBytes)"
scalar LothianBusNet.router.eth[10].mac 	"simulated time" 	107.4598286793
scalar LothianBusNet.router.eth[10].mac 	full-duplex 	1
scalar LothianBusNet.router.eth[10].mac 	"frames/sec sent" 	0
scalar LothianBusNet.router.eth[10].mac 	"frames/sec rcvd" 	0
scalar LothianBusNet.router.eth[10].mac 	"bits/sec sent" 	0
scalar LothianBusNet.router.eth[10].mac 	"bits/sec rcvd" 	0
scalar LothianBusNet.router.eth[10].mac 	"rx channel idle (%)" 	100
scalar LothianBusNet.router.eth[10].mac 	"rx channel utilization (%)" 	0
scalar LothianBusNet.router.eth[10].mac 	droppedPkNotForUs:count 	0
attr interpolationmode  none
attr source  dropPkNotForUs
attr title  "packets dropped/not for us, count"
scalar LothianBusNet.router.eth[10].mac 	droppedPkNotForUs:sum(packetBytes) 	0
attr interpolationmode  none
attr source  dropPkNotForUs
attr title  "packets dropped/not for us, sum(packetBytes)"
scalar LothianBusNet.router.eth[10].mac 	droppedPkBitError:count 	0
attr interpolationmode  none
attr source  dropPkBitError
attr title  "packets dropped/bit error, count"
scalar LothianBusNet.router.eth[10].mac 	droppedPkBitError:sum(packetBytes) 	0
attr interpolationmode  none
attr source  dropPkBitError
attr title  "packets dropped/bit error, sum(packetBytes)"
scalar LothianBusNet.router.eth[10].mac 	droppedPkIfaceDown:count 	0
attr interpolationmode  none
attr source  dropPkIfaceDown
attr title  "packets dropped/interface down, count"
scalar LothianBusNet.router.eth[10].mac 	droppedPkIfaceDown:sum(packetBytes) 	0
attr interpolationmode  none
attr source  dropPkIfaceDown
attr title  "packets dropped/interface down, sum(packetBytes)"
scalar LothianBusNet.router.eth[10].mac 	rxPkFromHL:count 	0
attr interpolationmode  none
attr source  rxPkFromHL
attr title  "packet bytes from higher layer, count"
scalar LothianBusNet.router.eth[10].mac 	rxPkFromHL:sum(packetBytes) 	0
attr interpolationmode  none
attr source  rxPkFromHL
attr title  "packet bytes from higher layer, sum(packetBytes)"
scalar LothianBusNet.router.eth[10].mac 	rxPausePkUnits:count 	0
attr interpolationmode  none
attr title  "pause units received, count"
scalar LothianBusNet.router.eth[10].mac 	rxPausePkUnits:sum 	0
attr interpolationmode  none
attr title  "pause units received, sum"
scalar LothianBusNet.router.eth[10].mac 	txPausePkUnits:count 	0
attr interpolationmode  none
attr title  "pause units sent, count"
scalar LothianBusNet.router.eth[10].mac 	txPausePkUnits:sum 	0
attr interpolationmode  none
attr title  "pause units sent, sum"
scalar LothianBusNet.router.eth[10].mac 	rxPkOk:count 	0
attr interpolationmode  none
attr source  rxPkOk
attr title  "packets received OK, count"
scalar LothianBusNet.router.eth[10].mac 	rxPkOk:sum(packetBytes) 	0
attr interpolationmode  none
attr source  rxPkOk
attr title  "packets received OK, sum(packetBytes)"
scalar LothianBusNet.router.eth[10].mac 	txPk:count 	0
attr interpolationmode  none
attr source  txPk
attr title  "packets transmitted, count"
scalar LothianBusNet.router.eth[10].mac 	txPk:sum(packetBytes) 	0
attr interpolationmode  none
attr source  txPk
attr title  "packets transmitted, sum(packetBytes)"
scalar LothianBusNet.router.eth[10].mac 	passedUpPk:count 	0
attr interpolationmode  none
attr source  packetSentToUpper
attr title  "packets passed to higher layer, count"
scalar LothianBusNet.router.eth[10].mac 	passedUpPk:sum(packetBytes) 	0
attr interpolationmode  none
attr source  packetSentToUpper
attr title  "packets passed to higher layer, sum(packetBytes)"
scalar LothianBusNet.router.eth[10].encap 	pauseSent:count 	0
attr title  "pause sent, count"
scalar LothianBusNet.router.eth[10].encap 	pauseSent:sum 	0
attr title  "pause sent, sum"
scalar LothianBusNet.router.eth[10].encap 	decapPk:count 	0
attr interpolationmode  none
attr source  decapPk
attr title  "packets decapsulated, count"
scalar LothianBusNet.router.eth[10].encap 	decapPk:sum(packetBytes) 	0
attr interpolationmode  none
attr source  decapPk
attr title  "packets decapsulated, sum(packetBytes)"
scalar LothianBusNet.router.eth[10].encap 	encapPk:count 	0
attr interpolationmode  none
attr source  encapPk
attr title  "packets encapsulated, count"
scalar LothianBusNet.router.eth[10].encap 	encapPk:sum(packetBytes) 	0
attr interpolationmode  none
attr source  encapPk
attr title  "packets encapsulated, sum(packetBytes)"
scalar LothianBusNet.bus[0].udp.appOut[0].channel 	throughput:last 	nan
attr source  sumPerDuration(packetBits(messageSent))
attr unit  bps
scalar LothianBusNet.bus[0].udp 	droppedPkBadChecksum:count 	0
attr interpolationmode  none
attr title  "packets dropped (checksum error), count"
scalar LothianBusNet.bus[0].udp 	droppedPkWrongPort:count 	0
attr interpolationmode  none
attr title  "packets dropped (wrong port), count"
scalar LothianBusNet.bus[0].udp 	passedUpPk:count 	0
attr interpolationmode  none
attr title  "packets passed up, count"
scalar LothianBusNet.bus[0].udp 	sentPk:count 	105
attr interpolationmode  none
attr source  sentPk
attr title  "packets sent, count"
scalar LothianBusNet.bus[0].udp 	sentPk:sum(packetBytes) 	840
attr interpolationmode  none
attr source  sentPk
attr title  "packets sent, sum(packetBytes)"
scalar LothianBusNet.bus[0].udp 	rcvdPk:count 	0
attr interpolationmode  none
attr source  rcvdPk
attr title  "packets received, count"
scalar LothianBusNet.bus[0].udp 	rcvdPk:sum(packetBytes) 	0
attr interpolationmode  none
attr source  rcvdPk
attr title  "packets received, sum(packetBytes)"
scalar LothianBusNet.bus[0].networkLayer.arp 	failedResolution:count 	34
attr title  "ARP failed resolutions, count"
scalar LothianBusNet.bus[0].networkLayer.arp 	initiatedResolution:count 	35
attr title  "ARP initiated resolutions, count"
scalar LothianBusNet.bus[0].networkLayer.arp 	sentReplies:count 	0
attr title  "ARP replies sent, count"
scalar LothianBusNet.bus[0].networkLayer.arp 	sentReq:count 	105
attr title  "ARP request sent, count"
scalar LothianBusNet.bus[0].wlan.agent 	dropConfirm:count 	429
attr title  "dropped confirms, count"
scalar LothianBusNet.bus[0].wlan.agent 	acceptConfirm:count 	0
attr title  "accepted confirms, count"
scalar LothianBusNet.bus[0].wlan.agent 	sentRequest:count 	430
attr title  "sent requests, count"
scalar LothianBusNet.bus[0].wlan.mgmt 	dropPkByQueue:count 	0
attr interpolationmode  none
attr source  dropPkByQueue
attr title  "packets dropped by queue, count"
scalar LothianBusNet.bus[0].wlan.mgmt 	dropPkByQueue:sum(packetBytes) 	0
attr interpolationmode  none
attr source  dropPkByQueue
attr title  "packets dropped by queue, sum(packetBytes)"
scalar LothianBusNet.bus[0].wlan.mgmt 	dataQueueLen:max 	0
attr interpolationmode  sample-hold
attr title  "data queue length, max"
scalar LothianBusNet.bus[0].wlan.mgmt 	dataQueueLen:timeavg 	0
attr interpolationmode  sample-hold
attr title  "data queue length, timeavg"
scalar LothianBusNet.bus[0].wlan.mac 	"number of received packets" 	0
scalar LothianBusNet.bus[0].wlan.mac 	"number of collisions" 	0
scalar LothianBusNet.bus[0].wlan.mac 	"number of internal collisions" 	0
scalar LothianBusNet.bus[0].wlan.mac 	"number of retry for AC 0" 	0
scalar LothianBusNet.bus[0].wlan.mac 	"sent and received bits" 	137280
scalar LothianBusNet.bus[0].wlan.mac 	"sent packet within AC 0" 	0
scalar LothianBusNet.bus[0].wlan.mac 	"sent in TXOP " 	0
scalar LothianBusNet.bus[0].wlan.mac 	"sentWithoutRetry AC 0" 	0
scalar LothianBusNet.bus[0].wlan.mac 	"numGivenUp AC 0" 	0
scalar LothianBusNet.bus[0].wlan.mac 	"numDropped AC 0" 	0
scalar LothianBusNet.bus[0].wlan.mac 	rcvdPkFromLL:count 	0
attr interpolationmode  none
attr source  packetReceivedFromLower
attr title  "packets received from lower layer, count"
scalar LothianBusNet.bus[0].wlan.mac 	rcvdPkFromLL:sum(packetBytes) 	0
attr interpolationmode  none
attr source  packetReceivedFromLower
attr title  "packets received from lower layer, sum(packetBytes)"
scalar LothianBusNet.bus[0].wlan.mac 	rcvdPkFromHL:count 	429
attr interpolationmode  none
attr source  packetReceivedFromUpper
attr title  "packets received from higher layer, count"
scalar LothianBusNet.bus[0].wlan.mac 	rcvdPkFromHL:sum(packetBytes) 	17160
attr interpolationmode  none
attr source  packetReceivedFromUpper
attr title  "packets received from higher layer, sum(packetBytes)"
scalar LothianBusNet.bus[0].wlan.mac 	sentDownPk:count 	429
attr interpolationmode  none
attr source  packetSentToLower
attr title  "packets sent to lower layer, count"
scalar LothianBusNet.bus[0].wlan.mac 	sentDownPk:sum(packetBytes) 	17160
attr interpolationmode  none
attr source  packetSentToLower
attr title  "packets sent to lower layer, sum(packetBytes)"
scalar LothianBusNet.bus[0].wlan.mac 	passedUpPk:count 	0
attr interpolationmode  none
attr source  packetSentToUpper
attr title  "packets passed to higher layer, count"
scalar LothianBusNet.bus[0].wlan.mac 	passedUpPk:sum(packetBytes) 	0
attr interpolationmode  none
attr source  packetSentToUpper
attr title  "packets passed to higher layer, sum(packetBytes)"
scalar LothianBusNet.bus[0].wlan.radio 	lossRate:min 	nan
attr interpolationmode  backward-sample-hold
attr title  "packet loss rate, min"
scalar LothianBusNet.bus[0].wlan.radio 	lossRate:max 	nan
attr interpolationmode  backward-sample-hold
attr title  "packet loss rate, max"
scalar LothianBusNet.bus[0].wlan.radio 	lossRate:timeavg 	nan
attr interpolationmode  backward-sample-hold
attr title  "packet loss rate, timeavg"
scalar LothianBusNet.bus[0].wlan.radio 	radioState:count 	859
attr interpolationmode  sample-hold
attr title  "radio state (enum), count"
statistic LothianBusNet.bus[0].wlan.radio 	channelNo:histogram
field count 1
field mean 0
field stddev nan
field sum 0
field sqrsum 0
field min 0
field max 0
attr interpolationmode  sample-hold
attr title  "channel no, histogram"
bin	-INF	0
bin	-0.5	0
bin	-0.46666666666667	0
bin	-0.43333333333333	0
bin	-0.4	0
bin	-0.36666666666667	0
bin	-0.33333333333333	0
bin	-0.3	0
bin	-0.26666666666667	0
bin	-0.23333333333333	0
bin	-0.2	0
bin	-0.16666666666667	0
bin	-0.13333333333333	0
bin	-0.1	0
bin	-0.066666666666667	0
bin	-0.033333333333333	0
bin	0	1
bin	0.033333333333333	0
bin	0.066666666666667	0
bin	0.1	0
bin	0.13333333333333	0
bin	0.16666666666667	0
bin	0.2	0
bin	0.23333333333333	0
bin	0.26666666666667	0
bin	0.3	0
bin	0.33333333333333	0
bin	0.36666666666667	0
bin	0.4	0
bin	0.43333333333333	0
bin	0.46666666666667	0
bin	0.5	0
scalar LothianBusNet.bus[0].wlan.radio 	bitrate:min 	54000000
attr interpolationmode  sample-hold
attr title  "tx bitrate, min"
attr unit  bps
scalar LothianBusNet.bus[0].wlan.radio 	bitrate:max 	54000000
attr interpolationmode  sample-hold
attr title  "tx bitrate, max"
attr unit  bps
scalar LothianBusNet.bus[0].wlan.radio 	bitrate:timeavg 	54000000
attr interpolationmode  sample-hold
attr title  "tx bitrate, timeavg"
attr unit  bps
