version 2
run General-0-20131117-17:33:04-35586
attr configname General
attr datetime 20131117-17:33:04
attr experiment General
attr inifile omnetpp.ini
attr iterationvars ""
attr iterationvars2 $repetition=0
attr measurement ""
attr network LothianBusNet
attr processid 35586
attr repetition 0
attr replication #0
attr resultdir results
attr runnumber 0
attr seedset 0

scalar LothianBusNet.ap[0].ethg$o[0].channel 	throughput:last 	565.33263252905
attr source  sumPerDuration(packetBits(messageSent))
attr unit  bps
scalar LothianBusNet.sink.ethg$o[0].channel 	throughput:last 	191.87333121996
attr source  sumPerDuration(packetBits(messageSent))
attr unit  bps
scalar LothianBusNet.router.ethg$o[0].channel 	throughput:last 	191.96338412999
attr source  sumPerDuration(packetBits(messageSent))
attr unit  bps
scalar LothianBusNet.router.ethg$o[1].channel 	throughput:last 	565.32733772164
attr source  sumPerDuration(packetBits(messageSent))
attr unit  bps
scalar LothianBusNet.ap[0].relayUnit 	"processed frames" 	54
scalar LothianBusNet.ap[0].relayUnit 	"dropped frames" 	0
scalar LothianBusNet.ap[0].relayUnit 	droppedBytes:count 	0
attr title  "Dropped bytes, count"
scalar LothianBusNet.ap[0].relayUnit 	droppedBytes:sum 	0
attr title  "Dropped bytes, sum"
scalar LothianBusNet.ap[0].relayUnit 	processedBytes:count 	0
attr title  "Processed bytes, count"
scalar LothianBusNet.ap[0].relayUnit 	processedBytes:sum 	0
attr title  "Processed bytes, sum"
scalar LothianBusNet.ap[0].relayUnit 	usedBufferBytes:max 	nan
attr title  "Used buffer bytes, max"
scalar LothianBusNet.ap[0].relayUnit 	usedBufferBytes:timeavg 	nan
attr title  "Used buffer bytes, timeavg"
scalar LothianBusNet.ap[0].wlan[0].mgmt 	dropPkByQueue:count 	0
attr interpolationmode  none
attr source  dropPkByQueue
attr title  "packets dropped by queue, count"
scalar LothianBusNet.ap[0].wlan[0].mgmt 	dropPkByQueue:sum(packetBytes) 	0
attr interpolationmode  none
attr source  dropPkByQueue
attr title  "packets dropped by queue, sum(packetBytes)"
scalar LothianBusNet.ap[0].wlan[0].mgmt 	dataQueueLen:max 	0
attr interpolationmode  sample-hold
attr title  "data queue length, max"
scalar LothianBusNet.ap[0].wlan[0].mgmt 	dataQueueLen:timeavg 	0
attr interpolationmode  sample-hold
attr title  "data queue length, timeavg"
scalar LothianBusNet.ap[0].wlan[0].mac 	"number of received packets" 	56
scalar LothianBusNet.ap[0].wlan[0].mac 	"number of collisions" 	0
scalar LothianBusNet.ap[0].wlan[0].mac 	"number of internal collisions" 	0
scalar LothianBusNet.ap[0].wlan[0].mac 	"number of retry for AC 0" 	0
scalar LothianBusNet.ap[0].wlan[0].mac 	"sent and received bits" 	637952
scalar LothianBusNet.ap[0].wlan[0].mac 	"sent packet within AC 0" 	5
scalar LothianBusNet.ap[0].wlan[0].mac 	"sent in TXOP " 	0
scalar LothianBusNet.ap[0].wlan[0].mac 	"sentWithoutRetry AC 0" 	5
scalar LothianBusNet.ap[0].wlan[0].mac 	"numGivenUp AC 0" 	0
scalar LothianBusNet.ap[0].wlan[0].mac 	"numDropped AC 0" 	0
scalar LothianBusNet.ap[0].wlan[0].mac 	rcvdPkFromLL:count 	62
attr interpolationmode  none
attr source  packetReceivedFromLower
attr title  "packets received from lower layer, count"
scalar LothianBusNet.ap[0].wlan[0].mac 	rcvdPkFromLL:sum(packetBytes) 	3932
attr interpolationmode  none
attr source  packetReceivedFromLower
attr title  "packets received from lower layer, sum(packetBytes)"
scalar LothianBusNet.ap[0].wlan[0].mac 	rcvdPkFromHL:count 	1024
attr interpolationmode  none
attr source  packetReceivedFromUpper
attr title  "packets received from higher layer, count"
scalar LothianBusNet.ap[0].wlan[0].mac 	rcvdPkFromHL:sum(packetBytes) 	79744
attr interpolationmode  none
attr source  packetReceivedFromUpper
attr title  "packets received from higher layer, sum(packetBytes)"
scalar LothianBusNet.ap[0].wlan[0].mac 	sentDownPk:count 	1080
attr interpolationmode  none
attr source  packetSentToLower
attr title  "packets sent to lower layer, count"
scalar LothianBusNet.ap[0].wlan[0].mac 	sentDownPk:sum(packetBytes) 	80528
attr interpolationmode  none
attr source  packetSentToLower
attr title  "packets sent to lower layer, sum(packetBytes)"
scalar LothianBusNet.ap[0].wlan[0].mac 	passedUpPk:count 	57
attr interpolationmode  none
attr source  packetSentToUpper
attr title  "packets passed to higher layer, count"
scalar LothianBusNet.ap[0].wlan[0].mac 	passedUpPk:sum(packetBytes) 	3862
attr interpolationmode  none
attr source  packetSentToUpper
attr title  "packets passed to higher layer, sum(packetBytes)"
scalar LothianBusNet.ap[0].wlan[0].radio 	lossRate:min 	0
attr interpolationmode  backward-sample-hold
attr title  "packet loss rate, min"
scalar LothianBusNet.ap[0].wlan[0].radio 	lossRate:max 	0
attr interpolationmode  backward-sample-hold
attr title  "packet loss rate, max"
scalar LothianBusNet.ap[0].wlan[0].radio 	lossRate:timeavg 	0
attr interpolationmode  backward-sample-hold
attr title  "packet loss rate, timeavg"
scalar LothianBusNet.ap[0].wlan[0].radio 	radioState:count 	2285
attr interpolationmode  sample-hold
attr title  "radio state (enum), count"
statistic LothianBusNet.ap[0].wlan[0].radio 	channelNo:histogram
field count 1
field mean 0
field stddev nan
field sum 0
field sqrsum 0
field min 0
field max 0
attr interpolationmode  sample-hold
attr title  "channel no, histogram"
bin	-INF	0
bin	-0.5	0
bin	-0.46666666666667	0
bin	-0.43333333333333	0
bin	-0.4	0
bin	-0.36666666666667	0
bin	-0.33333333333333	0
bin	-0.3	0
bin	-0.26666666666667	0
bin	-0.23333333333333	0
bin	-0.2	0
bin	-0.16666666666667	0
bin	-0.13333333333333	0
bin	-0.1	0
bin	-0.066666666666667	0
bin	-0.033333333333333	0
bin	0	1
bin	0.033333333333333	0
bin	0.066666666666667	0
bin	0.1	0
bin	0.13333333333333	0
bin	0.16666666666667	0
bin	0.2	0
bin	0.23333333333333	0
bin	0.26666666666667	0
bin	0.3	0
bin	0.33333333333333	0
bin	0.36666666666667	0
bin	0.4	0
bin	0.43333333333333	0
bin	0.46666666666667	0
bin	0.5	0
scalar LothianBusNet.ap[0].wlan[0].radio 	bitrate:min 	54000000
attr interpolationmode  sample-hold
attr title  "tx bitrate, min"
attr unit  bps
scalar LothianBusNet.ap[0].wlan[0].radio 	bitrate:max 	54000000
attr interpolationmode  sample-hold
attr title  "tx bitrate, max"
attr unit  bps
scalar LothianBusNet.ap[0].wlan[0].radio 	bitrate:timeavg 	54000000
attr interpolationmode  sample-hold
attr title  "tx bitrate, timeavg"
attr unit  bps
scalar LothianBusNet.ap[0].eth[0].mac 	"simulated time" 	101.76503713195
scalar LothianBusNet.ap[0].eth[0].mac 	full-duplex 	1
scalar LothianBusNet.ap[0].eth[0].mac 	"frames/sec sent" 	0.52080755329829
scalar LothianBusNet.ap[0].eth[0].mac 	"frames/sec rcvd" 	0.0098265576094017
scalar LothianBusNet.ap[0].eth[0].mac 	"bits/sec sent" 	266.65346728872
scalar LothianBusNet.ap[0].eth[0].mac 	"bits/sec rcvd" 	5.0311974960137
scalar LothianBusNet.ap[0].eth[0].mac 	"rx channel idle (%)" 	99.999994339903
scalar LothianBusNet.ap[0].eth[0].mac 	"rx channel utilization (%)" 	5.6600971830154e-06
scalar LothianBusNet.ap[0].eth[0].mac 	droppedPkNotForUs:count 	0
attr interpolationmode  none
attr source  dropPkNotForUs
attr title  "packets dropped/not for us, count"
scalar LothianBusNet.ap[0].eth[0].mac 	droppedPkNotForUs:sum(packetBytes) 	0
attr interpolationmode  none
attr source  dropPkNotForUs
attr title  "packets dropped/not for us, sum(packetBytes)"
scalar LothianBusNet.ap[0].eth[0].mac 	droppedPkBitError:count 	0
attr interpolationmode  none
attr source  dropPkBitError
attr title  "packets dropped/bit error, count"
scalar LothianBusNet.ap[0].eth[0].mac 	droppedPkBitError:sum(packetBytes) 	0
attr interpolationmode  none
attr source  dropPkBitError
attr title  "packets dropped/bit error, sum(packetBytes)"
scalar LothianBusNet.ap[0].eth[0].mac 	droppedPkIfaceDown:count 	0
attr interpolationmode  none
attr source  dropPkIfaceDown
attr title  "packets dropped/interface down, count"
scalar LothianBusNet.ap[0].eth[0].mac 	droppedPkIfaceDown:sum(packetBytes) 	0
attr interpolationmode  none
attr source  dropPkIfaceDown
attr title  "packets dropped/interface down, sum(packetBytes)"
scalar LothianBusNet.ap[0].eth[0].mac 	rxPkFromHL:count 	53
attr interpolationmode  none
attr source  rxPkFromHL
attr title  "packet bytes from higher layer, count"
scalar LothianBusNet.ap[0].eth[0].mac 	rxPkFromHL:sum(packetBytes) 	3392
attr interpolationmode  none
attr source  rxPkFromHL
attr title  "packet bytes from higher layer, sum(packetBytes)"
scalar LothianBusNet.ap[0].eth[0].mac 	rxPausePkUnits:count 	0
attr interpolationmode  none
attr title  "pause units received, count"
scalar LothianBusNet.ap[0].eth[0].mac 	rxPausePkUnits:sum 	0
attr interpolationmode  none
attr title  "pause units received, sum"
scalar LothianBusNet.ap[0].eth[0].mac 	txPausePkUnits:count 	0
attr interpolationmode  none
attr title  "pause units sent, count"
scalar LothianBusNet.ap[0].eth[0].mac 	txPausePkUnits:sum 	0
attr interpolationmode  none
attr title  "pause units sent, sum"
scalar LothianBusNet.ap[0].eth[0].mac 	rxPkOk:count 	1
attr interpolationmode  none
attr source  rxPkOk
attr title  "packets received OK, count"
scalar LothianBusNet.ap[0].eth[0].mac 	rxPkOk:sum(packetBytes) 	64
attr interpolationmode  none
attr source  rxPkOk
attr title  "packets received OK, sum(packetBytes)"
scalar LothianBusNet.ap[0].eth[0].mac 	txPk:count 	53
attr interpolationmode  none
attr source  txPk
attr title  "packets transmitted, count"
scalar LothianBusNet.ap[0].eth[0].mac 	txPk:sum(packetBytes) 	3392
attr interpolationmode  none
attr source  txPk
attr title  "packets transmitted, sum(packetBytes)"
scalar LothianBusNet.ap[0].eth[0].mac 	passedUpPk:count 	1
attr interpolationmode  none
attr source  packetSentToUpper
attr title  "packets passed to higher layer, count"
scalar LothianBusNet.ap[0].eth[0].mac 	passedUpPk:sum(packetBytes) 	64
attr interpolationmode  none
attr source  packetSentToUpper
attr title  "packets passed to higher layer, sum(packetBytes)"
scalar LothianBusNet.sink.networkLayer.arp 	failedResolution:count 	0
attr title  "ARP failed resolutions, count"
scalar LothianBusNet.sink.networkLayer.arp 	initiatedResolution:count 	0
attr title  "ARP initiated resolutions, count"
scalar LothianBusNet.sink.networkLayer.arp 	sentReplies:count 	0
attr title  "ARP replies sent, count"
scalar LothianBusNet.sink.networkLayer.arp 	sentReq:count 	0
attr title  "ARP request sent, count"
scalar LothianBusNet.sink.lo0.lo 	droppedPkBitError:count 	0
attr interpolationmode  none
attr source  dropPkBitError
attr title  "packets dropped/bit error, count"
scalar LothianBusNet.sink.lo0.lo 	droppedPkBitError:sum(packetBytes) 	0
attr interpolationmode  none
attr source  dropPkBitError
attr title  "packets dropped/bit error, sum(packetBytes)"
scalar LothianBusNet.sink.lo0.lo 	rcvdPkFromHL:count 	0
attr interpolationmode  none
attr source  packetReceivedFromUpper
attr title  "packets received from higher layer, count"
scalar LothianBusNet.sink.lo0.lo 	rcvdPkFromHL:sum(packetBytes) 	0
attr interpolationmode  none
attr source  packetReceivedFromUpper
attr title  "packets received from higher layer, sum(packetBytes)"
scalar LothianBusNet.sink.lo0.lo 	passedUpPk:count 	0
attr interpolationmode  none
attr source  packetSentToUpper
attr title  "packets passed to higher layer, count"
scalar LothianBusNet.sink.lo0.lo 	passedUpPk:sum(packetBytes) 	0
attr interpolationmode  none
attr source  packetSentToUpper
attr title  "packets passed to higher layer, sum(packetBytes)"
scalar LothianBusNet.sink.eth[0].mac 	"simulated time" 	101.76503713195
scalar LothianBusNet.sink.eth[0].mac 	full-duplex 	1
scalar LothianBusNet.sink.eth[0].mac 	"frames/sec sent" 	0.0098265576094017
scalar LothianBusNet.sink.eth[0].mac 	"frames/sec rcvd" 	0.52080755329829
scalar LothianBusNet.sink.eth[0].mac 	"bits/sec sent" 	5.0311974960137
scalar LothianBusNet.sink.eth[0].mac 	"bits/sec rcvd" 	266.65346728872
scalar LothianBusNet.sink.eth[0].mac 	"rx channel idle (%)" 	99.999700014849
scalar LothianBusNet.sink.eth[0].mac 	"rx channel utilization (%)" 	0.00029998515069982
scalar LothianBusNet.sink.eth[0].mac 	droppedPkNotForUs:count 	0
attr interpolationmode  none
attr source  dropPkNotForUs
attr title  "packets dropped/not for us, count"
scalar LothianBusNet.sink.eth[0].mac 	droppedPkNotForUs:sum(packetBytes) 	0
attr interpolationmode  none
attr source  dropPkNotForUs
attr title  "packets dropped/not for us, sum(packetBytes)"
scalar LothianBusNet.sink.eth[0].mac 	droppedPkBitError:count 	0
attr interpolationmode  none
attr source  dropPkBitError
attr title  "packets dropped/bit error, count"
scalar LothianBusNet.sink.eth[0].mac 	droppedPkBitError:sum(packetBytes) 	0
attr interpolationmode  none
attr source  dropPkBitError
attr title  "packets dropped/bit error, sum(packetBytes)"
scalar LothianBusNet.sink.eth[0].mac 	droppedPkIfaceDown:count 	0
attr interpolationmode  none
attr source  dropPkIfaceDown
attr title  "packets dropped/interface down, count"
scalar LothianBusNet.sink.eth[0].mac 	droppedPkIfaceDown:sum(packetBytes) 	0
attr interpolationmode  none
attr source  dropPkIfaceDown
attr title  "packets dropped/interface down, sum(packetBytes)"
scalar LothianBusNet.sink.eth[0].mac 	rxPkFromHL:count 	1
attr interpolationmode  none
attr source  rxPkFromHL
attr title  "packet bytes from higher layer, count"
scalar LothianBusNet.sink.eth[0].mac 	rxPkFromHL:sum(packetBytes) 	64
attr interpolationmode  none
attr source  rxPkFromHL
attr title  "packet bytes from higher layer, sum(packetBytes)"
scalar LothianBusNet.sink.eth[0].mac 	rxPausePkUnits:count 	0
attr interpolationmode  none
attr title  "pause units received, count"
scalar LothianBusNet.sink.eth[0].mac 	rxPausePkUnits:sum 	0
attr interpolationmode  none
attr title  "pause units received, sum"
scalar LothianBusNet.sink.eth[0].mac 	txPausePkUnits:count 	0
attr interpolationmode  none
attr title  "pause units sent, count"
scalar LothianBusNet.sink.eth[0].mac 	txPausePkUnits:sum 	0
attr interpolationmode  none
attr title  "pause units sent, sum"
scalar LothianBusNet.sink.eth[0].mac 	rxPkOk:count 	53
attr interpolationmode  none
attr source  rxPkOk
attr title  "packets received OK, count"
scalar LothianBusNet.sink.eth[0].mac 	rxPkOk:sum(packetBytes) 	3392
attr interpolationmode  none
attr source  rxPkOk
attr title  "packets received OK, sum(packetBytes)"
scalar LothianBusNet.sink.eth[0].mac 	txPk:count 	1
attr interpolationmode  none
attr source  txPk
attr title  "packets transmitted, count"
scalar LothianBusNet.sink.eth[0].mac 	txPk:sum(packetBytes) 	64
attr interpolationmode  none
attr source  txPk
attr title  "packets transmitted, sum(packetBytes)"
scalar LothianBusNet.sink.eth[0].mac 	passedUpPk:count 	53
attr interpolationmode  none
attr source  packetSentToUpper
attr title  "packets passed to higher layer, count"
scalar LothianBusNet.sink.eth[0].mac 	passedUpPk:sum(packetBytes) 	3392
attr interpolationmode  none
attr source  packetSentToUpper
attr title  "packets passed to higher layer, sum(packetBytes)"
scalar LothianBusNet.sink.eth[0].encap 	pauseSent:count 	0
attr title  "pause sent, count"
scalar LothianBusNet.sink.eth[0].encap 	pauseSent:sum 	0
attr title  "pause sent, sum"
scalar LothianBusNet.sink.eth[0].encap 	decapPk:count 	53
attr interpolationmode  none
attr source  decapPk
attr title  "packets decapsulated, count"
scalar LothianBusNet.sink.eth[0].encap 	decapPk:sum(packetBytes) 	1484
attr interpolationmode  none
attr source  decapPk
attr title  "packets decapsulated, sum(packetBytes)"
scalar LothianBusNet.sink.eth[0].encap 	encapPk:count 	1
attr interpolationmode  none
attr source  encapPk
attr title  "packets encapsulated, count"
scalar LothianBusNet.sink.eth[0].encap 	encapPk:sum(packetBytes) 	28
attr interpolationmode  none
attr source  encapPk
attr title  "packets encapsulated, sum(packetBytes)"
scalar LothianBusNet.sink.udpApp[0] 	rcvdPk:count 	52
attr interpolationmode  none
attr source  rcvdPk
attr title  "packets received, count"
scalar LothianBusNet.sink.udpApp[0] 	rcvdPk:sum(packetBytes) 	0
attr interpolationmode  none
attr source  rcvdPk
attr title  "packets received, sum(packetBytes)"
statistic LothianBusNet.sink.udpApp[0] 	endToEndDelay:histogram
field count 52
field mean 0.00060531034830769
field stddev 0.00019608788437942
field sum 0.031476138112
field sqrsum 2.1013805502376e-05
field min 0.000577765842
field max 0.001992126294
attr interpolationmode  none
attr source  messageAge(rcvdPk)
attr title  "end-to-end delay, histogram"
attr unit  s
bin	-INF	0
bin	-0.000129414384	0
bin	-3.51236872e-05	0
bin	5.91670096e-05	0
bin	0.0001534577064	0
bin	0.0002477484032	0
bin	0.0003420391	0
bin	0.0004363297968	0
bin	0.0005306204936	51
bin	0.0006249111904	0
bin	0.0007192018872	0
bin	0.000813492584	0
bin	0.0009077832808	0
bin	0.0010020739776	0
bin	0.0010963646744	0
bin	0.0011906553712	0
bin	0.001284946068	0
bin	0.0013792367648	0
bin	0.0014735274616	0
bin	0.0015678181584	0
bin	0.0016621088552	0
bin	0.001756399552	0
bin	0.0018506902488	0
bin	0.0019449809456	1
bin	0.0020392716424	0
bin	0.0021335623392	0
bin	0.002227853036	0
bin	0.0023221437328	0
bin	0.0024164344296	0
bin	0.0025107251264	0
bin	0.0026050158232	0
bin	0.00269930652	0
scalar LothianBusNet.sink.udp 	droppedPkBadChecksum:count 	0
attr interpolationmode  none
attr title  "packets dropped (checksum error), count"
scalar LothianBusNet.sink.udp 	droppedPkWrongPort:count 	0
attr interpolationmode  none
attr title  "packets dropped (wrong port), count"
scalar LothianBusNet.sink.udp 	passedUpPk:count 	52
attr interpolationmode  none
attr title  "packets passed up, count"
scalar LothianBusNet.sink.udp 	sentPk:count 	0
attr interpolationmode  none
attr source  sentPk
attr title  "packets sent, count"
scalar LothianBusNet.sink.udp 	sentPk:sum(packetBytes) 	0
attr interpolationmode  none
attr source  sentPk
attr title  "packets sent, sum(packetBytes)"
scalar LothianBusNet.sink.udp 	rcvdPk:count 	52
attr interpolationmode  none
attr source  rcvdPk
attr title  "packets received, count"
scalar LothianBusNet.sink.udp 	rcvdPk:sum(packetBytes) 	416
attr interpolationmode  none
attr source  rcvdPk
attr title  "packets received, sum(packetBytes)"
scalar LothianBusNet.router.networkLayer.arp 	failedResolution:count 	0
attr title  "ARP failed resolutions, count"
scalar LothianBusNet.router.networkLayer.arp 	initiatedResolution:count 	1
attr title  "ARP initiated resolutions, count"
scalar LothianBusNet.router.networkLayer.arp 	sentReplies:count 	0
attr title  "ARP replies sent, count"
scalar LothianBusNet.router.networkLayer.arp 	sentReq:count 	1
attr title  "ARP request sent, count"
scalar LothianBusNet.router.lo0.lo 	droppedPkBitError:count 	0
attr interpolationmode  none
attr source  dropPkBitError
attr title  "packets dropped/bit error, count"
scalar LothianBusNet.router.lo0.lo 	droppedPkBitError:sum(packetBytes) 	0
attr interpolationmode  none
attr source  dropPkBitError
attr title  "packets dropped/bit error, sum(packetBytes)"
scalar LothianBusNet.router.lo0.lo 	rcvdPkFromHL:count 	0
attr interpolationmode  none
attr source  packetReceivedFromUpper
attr title  "packets received from higher layer, count"
scalar LothianBusNet.router.lo0.lo 	rcvdPkFromHL:sum(packetBytes) 	0
attr interpolationmode  none
attr source  packetReceivedFromUpper
attr title  "packets received from higher layer, sum(packetBytes)"
scalar LothianBusNet.router.lo0.lo 	passedUpPk:count 	0
attr interpolationmode  none
attr source  packetSentToUpper
attr title  "packets passed to higher layer, count"
scalar LothianBusNet.router.lo0.lo 	passedUpPk:sum(packetBytes) 	0
attr interpolationmode  none
attr source  packetSentToUpper
attr title  "packets passed to higher layer, sum(packetBytes)"
scalar LothianBusNet.router.eth[0].mac 	"simulated time" 	101.76503713195
scalar LothianBusNet.router.eth[0].mac 	full-duplex 	1
scalar LothianBusNet.router.eth[0].mac 	"frames/sec sent" 	0.0098265576094017
scalar LothianBusNet.router.eth[0].mac 	"frames/sec rcvd" 	0.52080755329829
scalar LothianBusNet.router.eth[0].mac 	"bits/sec sent" 	5.0311974960137
scalar LothianBusNet.router.eth[0].mac 	"bits/sec rcvd" 	266.65346728872
scalar LothianBusNet.router.eth[0].mac 	"rx channel idle (%)" 	99.999700014849
scalar LothianBusNet.router.eth[0].mac 	"rx channel utilization (%)" 	0.00029998515069982
scalar LothianBusNet.router.eth[0].mac 	droppedPkNotForUs:count 	0
attr interpolationmode  none
attr source  dropPkNotForUs
attr title  "packets dropped/not for us, count"
scalar LothianBusNet.router.eth[0].mac 	droppedPkNotForUs:sum(packetBytes) 	0
attr interpolationmode  none
attr source  dropPkNotForUs
attr title  "packets dropped/not for us, sum(packetBytes)"
scalar LothianBusNet.router.eth[0].mac 	droppedPkBitError:count 	0
attr interpolationmode  none
attr source  dropPkBitError
attr title  "packets dropped/bit error, count"
scalar LothianBusNet.router.eth[0].mac 	droppedPkBitError:sum(packetBytes) 	0
attr interpolationmode  none
attr source  dropPkBitError
attr title  "packets dropped/bit error, sum(packetBytes)"
scalar LothianBusNet.router.eth[0].mac 	droppedPkIfaceDown:count 	0
attr interpolationmode  none
attr source  dropPkIfaceDown
attr title  "packets dropped/interface down, count"
scalar LothianBusNet.router.eth[0].mac 	droppedPkIfaceDown:sum(packetBytes) 	0
attr interpolationmode  none
attr source  dropPkIfaceDown
attr title  "packets dropped/interface down, sum(packetBytes)"
scalar LothianBusNet.router.eth[0].mac 	rxPkFromHL:count 	1
attr interpolationmode  none
attr source  rxPkFromHL
attr title  "packet bytes from higher layer, count"
scalar LothianBusNet.router.eth[0].mac 	rxPkFromHL:sum(packetBytes) 	64
attr interpolationmode  none
attr source  rxPkFromHL
attr title  "packet bytes from higher layer, sum(packetBytes)"
scalar LothianBusNet.router.eth[0].mac 	rxPausePkUnits:count 	0
attr interpolationmode  none
attr title  "pause units received, count"
scalar LothianBusNet.router.eth[0].mac 	rxPausePkUnits:sum 	0
attr interpolationmode  none
attr title  "pause units received, sum"
scalar LothianBusNet.router.eth[0].mac 	txPausePkUnits:count 	0
attr interpolationmode  none
attr title  "pause units sent, count"
scalar LothianBusNet.router.eth[0].mac 	txPausePkUnits:sum 	0
attr interpolationmode  none
attr title  "pause units sent, sum"
scalar LothianBusNet.router.eth[0].mac 	rxPkOk:count 	53
attr interpolationmode  none
attr source  rxPkOk
attr title  "packets received OK, count"
scalar LothianBusNet.router.eth[0].mac 	rxPkOk:sum(packetBytes) 	3392
attr interpolationmode  none
attr source  rxPkOk
attr title  "packets received OK, sum(packetBytes)"
scalar LothianBusNet.router.eth[0].mac 	txPk:count 	1
attr interpolationmode  none
attr source  txPk
attr title  "packets transmitted, count"
scalar LothianBusNet.router.eth[0].mac 	txPk:sum(packetBytes) 	64
attr interpolationmode  none
attr source  txPk
attr title  "packets transmitted, sum(packetBytes)"
scalar LothianBusNet.router.eth[0].mac 	passedUpPk:count 	53
attr interpolationmode  none
attr source  packetSentToUpper
attr title  "packets passed to higher layer, count"
scalar LothianBusNet.router.eth[0].mac 	passedUpPk:sum(packetBytes) 	3392
attr interpolationmode  none
attr source  packetSentToUpper
attr title  "packets passed to higher layer, sum(packetBytes)"
scalar LothianBusNet.router.eth[0].encap 	pauseSent:count 	0
attr title  "pause sent, count"
scalar LothianBusNet.router.eth[0].encap 	pauseSent:sum 	0
attr title  "pause sent, sum"
scalar LothianBusNet.router.eth[0].encap 	decapPk:count 	53
attr interpolationmode  none
attr source  decapPk
attr title  "packets decapsulated, count"
scalar LothianBusNet.router.eth[0].encap 	decapPk:sum(packetBytes) 	1484
attr interpolationmode  none
attr source  decapPk
attr title  "packets decapsulated, sum(packetBytes)"
scalar LothianBusNet.router.eth[0].encap 	encapPk:count 	1
attr interpolationmode  none
attr source  encapPk
attr title  "packets encapsulated, count"
scalar LothianBusNet.router.eth[0].encap 	encapPk:sum(packetBytes) 	28
attr interpolationmode  none
attr source  encapPk
attr title  "packets encapsulated, sum(packetBytes)"
scalar LothianBusNet.router.eth[1].mac 	"simulated time" 	101.76503713195
scalar LothianBusNet.router.eth[1].mac 	full-duplex 	1
scalar LothianBusNet.router.eth[1].mac 	"frames/sec sent" 	0.52080755329829
scalar LothianBusNet.router.eth[1].mac 	"frames/sec rcvd" 	0.0098265576094017
scalar LothianBusNet.router.eth[1].mac 	"bits/sec sent" 	266.65346728872
scalar LothianBusNet.router.eth[1].mac 	"bits/sec rcvd" 	5.0311974960137
scalar LothianBusNet.router.eth[1].mac 	"rx channel idle (%)" 	99.999994339903
scalar LothianBusNet.router.eth[1].mac 	"rx channel utilization (%)" 	5.6600971830154e-06
scalar LothianBusNet.router.eth[1].mac 	droppedPkNotForUs:count 	0
attr interpolationmode  none
attr source  dropPkNotForUs
attr title  "packets dropped/not for us, count"
scalar LothianBusNet.router.eth[1].mac 	droppedPkNotForUs:sum(packetBytes) 	0
attr interpolationmode  none
attr source  dropPkNotForUs
attr title  "packets dropped/not for us, sum(packetBytes)"
scalar LothianBusNet.router.eth[1].mac 	droppedPkBitError:count 	0
attr interpolationmode  none
attr source  dropPkBitError
attr title  "packets dropped/bit error, count"
scalar LothianBusNet.router.eth[1].mac 	droppedPkBitError:sum(packetBytes) 	0
attr interpolationmode  none
attr source  dropPkBitError
attr title  "packets dropped/bit error, sum(packetBytes)"
scalar LothianBusNet.router.eth[1].mac 	droppedPkIfaceDown:count 	0
attr interpolationmode  none
attr source  dropPkIfaceDown
attr title  "packets dropped/interface down, count"
scalar LothianBusNet.router.eth[1].mac 	droppedPkIfaceDown:sum(packetBytes) 	0
attr interpolationmode  none
attr source  dropPkIfaceDown
attr title  "packets dropped/interface down, sum(packetBytes)"
scalar LothianBusNet.router.eth[1].mac 	rxPkFromHL:count 	53
attr interpolationmode  none
attr source  rxPkFromHL
attr title  "packet bytes from higher layer, count"
scalar LothianBusNet.router.eth[1].mac 	rxPkFromHL:sum(packetBytes) 	3392
attr interpolationmode  none
attr source  rxPkFromHL
attr title  "packet bytes from higher layer, sum(packetBytes)"
scalar LothianBusNet.router.eth[1].mac 	rxPausePkUnits:count 	0
attr interpolationmode  none
attr title  "pause units received, count"
scalar LothianBusNet.router.eth[1].mac 	rxPausePkUnits:sum 	0
attr interpolationmode  none
attr title  "pause units received, sum"
scalar LothianBusNet.router.eth[1].mac 	txPausePkUnits:count 	0
attr interpolationmode  none
attr title  "pause units sent, count"
scalar LothianBusNet.router.eth[1].mac 	txPausePkUnits:sum 	0
attr interpolationmode  none
attr title  "pause units sent, sum"
scalar LothianBusNet.router.eth[1].mac 	rxPkOk:count 	1
attr interpolationmode  none
attr source  rxPkOk
attr title  "packets received OK, count"
scalar LothianBusNet.router.eth[1].mac 	rxPkOk:sum(packetBytes) 	64
attr interpolationmode  none
attr source  rxPkOk
attr title  "packets received OK, sum(packetBytes)"
scalar LothianBusNet.router.eth[1].mac 	txPk:count 	53
attr interpolationmode  none
attr source  txPk
attr title  "packets transmitted, count"
scalar LothianBusNet.router.eth[1].mac 	txPk:sum(packetBytes) 	3392
attr interpolationmode  none
attr source  txPk
attr title  "packets transmitted, sum(packetBytes)"
scalar LothianBusNet.router.eth[1].mac 	passedUpPk:count 	1
attr interpolationmode  none
attr source  packetSentToUpper
attr title  "packets passed to higher layer, count"
scalar LothianBusNet.router.eth[1].mac 	passedUpPk:sum(packetBytes) 	64
attr interpolationmode  none
attr source  packetSentToUpper
attr title  "packets passed to higher layer, sum(packetBytes)"
scalar LothianBusNet.router.eth[1].encap 	pauseSent:count 	0
attr title  "pause sent, count"
scalar LothianBusNet.router.eth[1].encap 	pauseSent:sum 	0
attr title  "pause sent, sum"
scalar LothianBusNet.router.eth[1].encap 	decapPk:count 	1
attr interpolationmode  none
attr source  decapPk
attr title  "packets decapsulated, count"
scalar LothianBusNet.router.eth[1].encap 	decapPk:sum(packetBytes) 	28
attr interpolationmode  none
attr source  decapPk
attr title  "packets decapsulated, sum(packetBytes)"
scalar LothianBusNet.router.eth[1].encap 	encapPk:count 	53
attr interpolationmode  none
attr source  encapPk
attr title  "packets encapsulated, count"
scalar LothianBusNet.router.eth[1].encap 	encapPk:sum(packetBytes) 	1484
attr interpolationmode  none
attr source  encapPk
attr title  "packets encapsulated, sum(packetBytes)"
scalar LothianBusNet.bus[0].udp.appOut[0].channel 	throughput:last 	nan
attr source  sumPerDuration(packetBits(messageSent))
attr unit  bps
scalar LothianBusNet.bus[0].udp 	droppedPkBadChecksum:count 	0
attr interpolationmode  none
attr title  "packets dropped (checksum error), count"
scalar LothianBusNet.bus[0].udp 	droppedPkWrongPort:count 	0
attr interpolationmode  none
attr title  "packets dropped (wrong port), count"
scalar LothianBusNet.bus[0].udp 	passedUpPk:count 	0
attr interpolationmode  none
attr title  "packets passed up, count"
scalar LothianBusNet.bus[0].udp 	sentPk:count 	99
attr interpolationmode  none
attr source  sentPk
attr title  "packets sent, count"
scalar LothianBusNet.bus[0].udp 	sentPk:sum(packetBytes) 	792
attr interpolationmode  none
attr source  sentPk
attr title  "packets sent, sum(packetBytes)"
scalar LothianBusNet.bus[0].udp 	rcvdPk:count 	0
attr interpolationmode  none
attr source  rcvdPk
attr title  "packets received, count"
scalar LothianBusNet.bus[0].udp 	rcvdPk:sum(packetBytes) 	0
attr interpolationmode  none
attr source  rcvdPk
attr title  "packets received, sum(packetBytes)"
scalar LothianBusNet.bus[0].networkLayer.arp 	failedResolution:count 	32
attr title  "ARP failed resolutions, count"
scalar LothianBusNet.bus[0].networkLayer.arp 	initiatedResolution:count 	33
attr title  "ARP initiated resolutions, count"
scalar LothianBusNet.bus[0].networkLayer.arp 	sentReplies:count 	0
attr title  "ARP replies sent, count"
scalar LothianBusNet.bus[0].networkLayer.arp 	sentReq:count 	99
attr title  "ARP request sent, count"
scalar LothianBusNet.bus[0].wlan.agent 	dropConfirm:count 	316
attr title  "dropped confirms, count"
scalar LothianBusNet.bus[0].wlan.agent 	acceptConfirm:count 	0
attr title  "accepted confirms, count"
scalar LothianBusNet.bus[0].wlan.agent 	sentRequest:count 	317
attr title  "sent requests, count"
scalar LothianBusNet.bus[0].wlan.mgmt 	dropPkByQueue:count 	0
attr interpolationmode  none
attr source  dropPkByQueue
attr title  "packets dropped by queue, count"
scalar LothianBusNet.bus[0].wlan.mgmt 	dropPkByQueue:sum(packetBytes) 	0
attr interpolationmode  none
attr source  dropPkByQueue
attr title  "packets dropped by queue, sum(packetBytes)"
scalar LothianBusNet.bus[0].wlan.mgmt 	dataQueueLen:max 	0
attr interpolationmode  sample-hold
attr title  "data queue length, max"
scalar LothianBusNet.bus[0].wlan.mgmt 	dataQueueLen:timeavg 	0
attr interpolationmode  sample-hold
attr title  "data queue length, timeavg"
scalar LothianBusNet.bus[0].wlan.mac 	"number of received packets" 	0
scalar LothianBusNet.bus[0].wlan.mac 	"number of collisions" 	0
scalar LothianBusNet.bus[0].wlan.mac 	"number of internal collisions" 	0
scalar LothianBusNet.bus[0].wlan.mac 	"number of retry for AC 0" 	0
scalar LothianBusNet.bus[0].wlan.mac 	"sent and received bits" 	101440
scalar LothianBusNet.bus[0].wlan.mac 	"sent packet within AC 0" 	0
scalar LothianBusNet.bus[0].wlan.mac 	"sent in TXOP " 	0
scalar LothianBusNet.bus[0].wlan.mac 	"sentWithoutRetry AC 0" 	0
scalar LothianBusNet.bus[0].wlan.mac 	"numGivenUp AC 0" 	0
scalar LothianBusNet.bus[0].wlan.mac 	"numDropped AC 0" 	0
scalar LothianBusNet.bus[0].wlan.mac 	rcvdPkFromLL:count 	165
attr interpolationmode  none
attr source  packetReceivedFromLower
attr title  "packets received from lower layer, count"
scalar LothianBusNet.bus[0].wlan.mac 	rcvdPkFromLL:sum(packetBytes) 	6600
attr interpolationmode  none
attr source  packetReceivedFromLower
attr title  "packets received from lower layer, sum(packetBytes)"
scalar LothianBusNet.bus[0].wlan.mac 	rcvdPkFromHL:count 	317
attr interpolationmode  none
attr source  packetReceivedFromUpper
attr title  "packets received from higher layer, count"
scalar LothianBusNet.bus[0].wlan.mac 	rcvdPkFromHL:sum(packetBytes) 	12680
attr interpolationmode  none
attr source  packetReceivedFromUpper
attr title  "packets received from higher layer, sum(packetBytes)"
scalar LothianBusNet.bus[0].wlan.mac 	sentDownPk:count 	317
attr interpolationmode  none
attr source  packetSentToLower
attr title  "packets sent to lower layer, count"
scalar LothianBusNet.bus[0].wlan.mac 	sentDownPk:sum(packetBytes) 	12680
attr interpolationmode  none
attr source  packetSentToLower
attr title  "packets sent to lower layer, sum(packetBytes)"
scalar LothianBusNet.bus[0].wlan.mac 	passedUpPk:count 	165
attr interpolationmode  none
attr source  packetSentToUpper
attr title  "packets passed to higher layer, count"
scalar LothianBusNet.bus[0].wlan.mac 	passedUpPk:sum(packetBytes) 	6600
attr interpolationmode  none
attr source  packetSentToUpper
attr title  "packets passed to higher layer, sum(packetBytes)"
scalar LothianBusNet.bus[0].wlan.radio 	lossRate:min 	0
attr interpolationmode  backward-sample-hold
attr title  "packet loss rate, min"
scalar LothianBusNet.bus[0].wlan.radio 	lossRate:max 	0
attr interpolationmode  backward-sample-hold
attr title  "packet loss rate, max"
scalar LothianBusNet.bus[0].wlan.radio 	lossRate:timeavg 	0
attr interpolationmode  backward-sample-hold
attr title  "packet loss rate, timeavg"
scalar LothianBusNet.bus[0].wlan.radio 	radioState:count 	965
attr interpolationmode  sample-hold
attr title  "radio state (enum), count"
statistic LothianBusNet.bus[0].wlan.radio 	channelNo:histogram
field count 1
field mean 0
field stddev nan
field sum 0
field sqrsum 0
field min 0
field max 0
attr interpolationmode  sample-hold
attr title  "channel no, histogram"
bin	-INF	0
bin	-0.5	0
bin	-0.46666666666667	0
bin	-0.43333333333333	0
bin	-0.4	0
bin	-0.36666666666667	0
bin	-0.33333333333333	0
bin	-0.3	0
bin	-0.26666666666667	0
bin	-0.23333333333333	0
bin	-0.2	0
bin	-0.16666666666667	0
bin	-0.13333333333333	0
bin	-0.1	0
bin	-0.066666666666667	0
bin	-0.033333333333333	0
bin	0	1
bin	0.033333333333333	0
bin	0.066666666666667	0
bin	0.1	0
bin	0.13333333333333	0
bin	0.16666666666667	0
bin	0.2	0
bin	0.23333333333333	0
bin	0.26666666666667	0
bin	0.3	0
bin	0.33333333333333	0
bin	0.36666666666667	0
bin	0.4	0
bin	0.43333333333333	0
bin	0.46666666666667	0
bin	0.5	0
scalar LothianBusNet.bus[0].wlan.radio 	bitrate:min 	54000000
attr interpolationmode  sample-hold
attr title  "tx bitrate, min"
attr unit  bps
scalar LothianBusNet.bus[0].wlan.radio 	bitrate:max 	54000000
attr interpolationmode  sample-hold
attr title  "tx bitrate, max"
attr unit  bps
scalar LothianBusNet.bus[0].wlan.radio 	bitrate:timeavg 	54000000
attr interpolationmode  sample-hold
attr title  "tx bitrate, timeavg"
attr unit  bps
scalar LothianBusNet.bus[1].udp.appOut[0].channel 	throughput:last 	nan
attr source  sumPerDuration(packetBits(messageSent))
attr unit  bps
scalar LothianBusNet.bus[1].udp 	droppedPkBadChecksum:count 	0
attr interpolationmode  none
attr title  "packets dropped (checksum error), count"
scalar LothianBusNet.bus[1].udp 	droppedPkWrongPort:count 	0
attr interpolationmode  none
attr title  "packets dropped (wrong port), count"
scalar LothianBusNet.bus[1].udp 	passedUpPk:count 	0
attr interpolationmode  none
attr title  "packets passed up, count"
scalar LothianBusNet.bus[1].udp 	sentPk:count 	99
attr interpolationmode  none
attr source  sentPk
attr title  "packets sent, count"
scalar LothianBusNet.bus[1].udp 	sentPk:sum(packetBytes) 	792
attr interpolationmode  none
attr source  sentPk
attr title  "packets sent, sum(packetBytes)"
scalar LothianBusNet.bus[1].udp 	rcvdPk:count 	0
attr interpolationmode  none
attr source  rcvdPk
attr title  "packets received, count"
scalar LothianBusNet.bus[1].udp 	rcvdPk:sum(packetBytes) 	0
attr interpolationmode  none
attr source  rcvdPk
attr title  "packets received, sum(packetBytes)"
scalar LothianBusNet.bus[1].networkLayer.arp 	failedResolution:count 	32
attr title  "ARP failed resolutions, count"
scalar LothianBusNet.bus[1].networkLayer.arp 	initiatedResolution:count 	33
attr title  "ARP initiated resolutions, count"
scalar LothianBusNet.bus[1].networkLayer.arp 	sentReplies:count 	0
attr title  "ARP replies sent, count"
scalar LothianBusNet.bus[1].networkLayer.arp 	sentReq:count 	99
attr title  "ARP request sent, count"
scalar LothianBusNet.bus[1].wlan.agent 	dropConfirm:count 	330
attr title  "dropped confirms, count"
scalar LothianBusNet.bus[1].wlan.agent 	acceptConfirm:count 	0
attr title  "accepted confirms, count"
scalar LothianBusNet.bus[1].wlan.agent 	sentRequest:count 	331
attr title  "sent requests, count"
scalar LothianBusNet.bus[1].wlan.mgmt 	dropPkByQueue:count 	0
attr interpolationmode  none
attr source  dropPkByQueue
attr title  "packets dropped by queue, count"
scalar LothianBusNet.bus[1].wlan.mgmt 	dropPkByQueue:sum(packetBytes) 	0
attr interpolationmode  none
attr source  dropPkByQueue
attr title  "packets dropped by queue, sum(packetBytes)"
scalar LothianBusNet.bus[1].wlan.mgmt 	dataQueueLen:max 	0
attr interpolationmode  sample-hold
attr title  "data queue length, max"
scalar LothianBusNet.bus[1].wlan.mgmt 	dataQueueLen:timeavg 	0
attr interpolationmode  sample-hold
attr title  "data queue length, timeavg"
scalar LothianBusNet.bus[1].wlan.mac 	"number of received packets" 	0
scalar LothianBusNet.bus[1].wlan.mac 	"number of collisions" 	0
scalar LothianBusNet.bus[1].wlan.mac 	"number of internal collisions" 	0
scalar LothianBusNet.bus[1].wlan.mac 	"number of retry for AC 0" 	0
scalar LothianBusNet.bus[1].wlan.mac 	"sent and received bits" 	105920
scalar LothianBusNet.bus[1].wlan.mac 	"sent packet within AC 0" 	0
scalar LothianBusNet.bus[1].wlan.mac 	"sent in TXOP " 	0
scalar LothianBusNet.bus[1].wlan.mac 	"sentWithoutRetry AC 0" 	0
scalar LothianBusNet.bus[1].wlan.mac 	"numGivenUp AC 0" 	0
scalar LothianBusNet.bus[1].wlan.mac 	"numDropped AC 0" 	0
scalar LothianBusNet.bus[1].wlan.mac 	rcvdPkFromLL:count 	203
attr interpolationmode  none
attr source  packetReceivedFromLower
attr title  "packets received from lower layer, count"
scalar LothianBusNet.bus[1].wlan.mac 	rcvdPkFromLL:sum(packetBytes) 	8120
attr interpolationmode  none
attr source  packetReceivedFromLower
attr title  "packets received from lower layer, sum(packetBytes)"
scalar LothianBusNet.bus[1].wlan.mac 	rcvdPkFromHL:count 	331
attr interpolationmode  none
attr source  packetReceivedFromUpper
attr title  "packets received from higher layer, count"
scalar LothianBusNet.bus[1].wlan.mac 	rcvdPkFromHL:sum(packetBytes) 	13240
attr interpolationmode  none
attr source  packetReceivedFromUpper
attr title  "packets received from higher layer, sum(packetBytes)"
scalar LothianBusNet.bus[1].wlan.mac 	sentDownPk:count 	331
attr interpolationmode  none
attr source  packetSentToLower
attr title  "packets sent to lower layer, count"
scalar LothianBusNet.bus[1].wlan.mac 	sentDownPk:sum(packetBytes) 	13240
attr interpolationmode  none
attr source  packetSentToLower
attr title  "packets sent to lower layer, sum(packetBytes)"
scalar LothianBusNet.bus[1].wlan.mac 	passedUpPk:count 	203
attr interpolationmode  none
attr source  packetSentToUpper
attr title  "packets passed to higher layer, count"
scalar LothianBusNet.bus[1].wlan.mac 	passedUpPk:sum(packetBytes) 	8120
attr interpolationmode  none
attr source  packetSentToUpper
attr title  "packets passed to higher layer, sum(packetBytes)"
scalar LothianBusNet.bus[1].wlan.radio 	lossRate:min 	0
attr interpolationmode  backward-sample-hold
attr title  "packet loss rate, min"
scalar LothianBusNet.bus[1].wlan.radio 	lossRate:max 	0
attr interpolationmode  backward-sample-hold
attr title  "packet loss rate, max"
scalar LothianBusNet.bus[1].wlan.radio 	lossRate:timeavg 	0
attr interpolationmode  backward-sample-hold
attr title  "packet loss rate, timeavg"
scalar LothianBusNet.bus[1].wlan.radio 	radioState:count 	1073
attr interpolationmode  sample-hold
attr title  "radio state (enum), count"
statistic LothianBusNet.bus[1].wlan.radio 	channelNo:histogram
field count 1
field mean 0
field stddev nan
field sum 0
field sqrsum 0
field min 0
field max 0
attr interpolationmode  sample-hold
attr title  "channel no, histogram"
bin	-INF	0
bin	-0.5	0
bin	-0.46666666666667	0
bin	-0.43333333333333	0
bin	-0.4	0
bin	-0.36666666666667	0
bin	-0.33333333333333	0
bin	-0.3	0
bin	-0.26666666666667	0
bin	-0.23333333333333	0
bin	-0.2	0
bin	-0.16666666666667	0
bin	-0.13333333333333	0
bin	-0.1	0
bin	-0.066666666666667	0
bin	-0.033333333333333	0
bin	0	1
bin	0.033333333333333	0
bin	0.066666666666667	0
bin	0.1	0
bin	0.13333333333333	0
bin	0.16666666666667	0
bin	0.2	0
bin	0.23333333333333	0
bin	0.26666666666667	0
bin	0.3	0
bin	0.33333333333333	0
bin	0.36666666666667	0
bin	0.4	0
bin	0.43333333333333	0
bin	0.46666666666667	0
bin	0.5	0
scalar LothianBusNet.bus[1].wlan.radio 	bitrate:min 	54000000
attr interpolationmode  sample-hold
attr title  "tx bitrate, min"
attr unit  bps
scalar LothianBusNet.bus[1].wlan.radio 	bitrate:max 	54000000
attr interpolationmode  sample-hold
attr title  "tx bitrate, max"
attr unit  bps
scalar LothianBusNet.bus[1].wlan.radio 	bitrate:timeavg 	54000000
attr interpolationmode  sample-hold
attr title  "tx bitrate, timeavg"
attr unit  bps
scalar LothianBusNet.bus[2].udp.appOut[0].channel 	throughput:last 	nan
attr source  sumPerDuration(packetBits(messageSent))
attr unit  bps
scalar LothianBusNet.bus[2].udp 	droppedPkBadChecksum:count 	0
attr interpolationmode  none
attr title  "packets dropped (checksum error), count"
scalar LothianBusNet.bus[2].udp 	droppedPkWrongPort:count 	0
attr interpolationmode  none
attr title  "packets dropped (wrong port), count"
scalar LothianBusNet.bus[2].udp 	passedUpPk:count 	0
attr interpolationmode  none
attr title  "packets passed up, count"
scalar LothianBusNet.bus[2].udp 	sentPk:count 	99
attr interpolationmode  none
attr source  sentPk
attr title  "packets sent, count"
scalar LothianBusNet.bus[2].udp 	sentPk:sum(packetBytes) 	792
attr interpolationmode  none
attr source  sentPk
attr title  "packets sent, sum(packetBytes)"
scalar LothianBusNet.bus[2].udp 	rcvdPk:count 	0
attr interpolationmode  none
attr source  rcvdPk
attr title  "packets received, count"
scalar LothianBusNet.bus[2].udp 	rcvdPk:sum(packetBytes) 	0
attr interpolationmode  none
attr source  rcvdPk
attr title  "packets received, sum(packetBytes)"
scalar LothianBusNet.bus[2].networkLayer.arp 	failedResolution:count 	32
attr title  "ARP failed resolutions, count"
scalar LothianBusNet.bus[2].networkLayer.arp 	initiatedResolution:count 	33
attr title  "ARP initiated resolutions, count"
scalar LothianBusNet.bus[2].networkLayer.arp 	sentReplies:count 	0
attr title  "ARP replies sent, count"
scalar LothianBusNet.bus[2].networkLayer.arp 	sentReq:count 	99
attr title  "ARP request sent, count"
scalar LothianBusNet.bus[2].wlan.agent 	dropConfirm:count 	253
attr title  "dropped confirms, count"
scalar LothianBusNet.bus[2].wlan.agent 	acceptConfirm:count 	0
attr title  "accepted confirms, count"
scalar LothianBusNet.bus[2].wlan.agent 	sentRequest:count 	254
attr title  "sent requests, count"
scalar LothianBusNet.bus[2].wlan.mgmt 	dropPkByQueue:count 	0
attr interpolationmode  none
attr source  dropPkByQueue
attr title  "packets dropped by queue, count"
scalar LothianBusNet.bus[2].wlan.mgmt 	dropPkByQueue:sum(packetBytes) 	0
attr interpolationmode  none
attr source  dropPkByQueue
attr title  "packets dropped by queue, sum(packetBytes)"
scalar LothianBusNet.bus[2].wlan.mgmt 	dataQueueLen:max 	0
attr interpolationmode  sample-hold
attr title  "data queue length, max"
scalar LothianBusNet.bus[2].wlan.mgmt 	dataQueueLen:timeavg 	0
attr interpolationmode  sample-hold
attr title  "data queue length, timeavg"
scalar LothianBusNet.bus[2].wlan.mac 	"number of received packets" 	0
scalar LothianBusNet.bus[2].wlan.mac 	"number of collisions" 	0
scalar LothianBusNet.bus[2].wlan.mac 	"number of internal collisions" 	0
scalar LothianBusNet.bus[2].wlan.mac 	"number of retry for AC 0" 	0
scalar LothianBusNet.bus[2].wlan.mac 	"sent and received bits" 	81280
scalar LothianBusNet.bus[2].wlan.mac 	"sent packet within AC 0" 	0
scalar LothianBusNet.bus[2].wlan.mac 	"sent in TXOP " 	0
scalar LothianBusNet.bus[2].wlan.mac 	"sentWithoutRetry AC 0" 	0
scalar LothianBusNet.bus[2].wlan.mac 	"numGivenUp AC 0" 	0
scalar LothianBusNet.bus[2].wlan.mac 	"numDropped AC 0" 	0
scalar LothianBusNet.bus[2].wlan.mac 	rcvdPkFromLL:count 	517
attr interpolationmode  none
attr source  packetReceivedFromLower
attr title  "packets received from lower layer, count"
scalar LothianBusNet.bus[2].wlan.mac 	rcvdPkFromLL:sum(packetBytes) 	20680
attr interpolationmode  none
attr source  packetReceivedFromLower
attr title  "packets received from lower layer, sum(packetBytes)"
scalar LothianBusNet.bus[2].wlan.mac 	rcvdPkFromHL:count 	254
attr interpolationmode  none
attr source  packetReceivedFromUpper
attr title  "packets received from higher layer, count"
scalar LothianBusNet.bus[2].wlan.mac 	rcvdPkFromHL:sum(packetBytes) 	10160
attr interpolationmode  none
attr source  packetReceivedFromUpper
attr title  "packets received from higher layer, sum(packetBytes)"
scalar LothianBusNet.bus[2].wlan.mac 	sentDownPk:count 	254
attr interpolationmode  none
attr source  packetSentToLower
attr title  "packets sent to lower layer, count"
scalar LothianBusNet.bus[2].wlan.mac 	sentDownPk:sum(packetBytes) 	10160
attr interpolationmode  none
attr source  packetSentToLower
attr title  "packets sent to lower layer, sum(packetBytes)"
scalar LothianBusNet.bus[2].wlan.mac 	passedUpPk:count 	517
attr interpolationmode  none
attr source  packetSentToUpper
attr title  "packets passed to higher layer, count"
scalar LothianBusNet.bus[2].wlan.mac 	passedUpPk:sum(packetBytes) 	20680
attr interpolationmode  none
attr source  packetSentToUpper
attr title  "packets passed to higher layer, sum(packetBytes)"
scalar LothianBusNet.bus[2].wlan.radio 	lossRate:min 	0
attr interpolationmode  backward-sample-hold
attr title  "packet loss rate, min"
scalar LothianBusNet.bus[2].wlan.radio 	lossRate:max 	0
attr interpolationmode  backward-sample-hold
attr title  "packet loss rate, max"
scalar LothianBusNet.bus[2].wlan.radio 	lossRate:timeavg 	0
attr interpolationmode  backward-sample-hold
attr title  "packet loss rate, timeavg"
scalar LothianBusNet.bus[2].wlan.radio 	radioState:count 	1543
attr interpolationmode  sample-hold
attr title  "radio state (enum), count"
statistic LothianBusNet.bus[2].wlan.radio 	channelNo:histogram
field count 1
field mean 0
field stddev nan
field sum 0
field sqrsum 0
field min 0
field max 0
attr interpolationmode  sample-hold
attr title  "channel no, histogram"
bin	-INF	0
bin	-0.5	0
bin	-0.46666666666667	0
bin	-0.43333333333333	0
bin	-0.4	0
bin	-0.36666666666667	0
bin	-0.33333333333333	0
bin	-0.3	0
bin	-0.26666666666667	0
bin	-0.23333333333333	0
bin	-0.2	0
bin	-0.16666666666667	0
bin	-0.13333333333333	0
bin	-0.1	0
bin	-0.066666666666667	0
bin	-0.033333333333333	0
bin	0	1
bin	0.033333333333333	0
bin	0.066666666666667	0
bin	0.1	0
bin	0.13333333333333	0
bin	0.16666666666667	0
bin	0.2	0
bin	0.23333333333333	0
bin	0.26666666666667	0
bin	0.3	0
bin	0.33333333333333	0
bin	0.36666666666667	0
bin	0.4	0
bin	0.43333333333333	0
bin	0.46666666666667	0
bin	0.5	0
scalar LothianBusNet.bus[2].wlan.radio 	bitrate:min 	54000000
attr interpolationmode  sample-hold
attr title  "tx bitrate, min"
attr unit  bps
scalar LothianBusNet.bus[2].wlan.radio 	bitrate:max 	54000000
attr interpolationmode  sample-hold
attr title  "tx bitrate, max"
attr unit  bps
scalar LothianBusNet.bus[2].wlan.radio 	bitrate:timeavg 	54000000
attr interpolationmode  sample-hold
attr title  "tx bitrate, timeavg"
attr unit  bps
scalar LothianBusNet.bus[3].udp.appOut[0].channel 	throughput:last 	nan
attr source  sumPerDuration(packetBits(messageSent))
attr unit  bps
scalar LothianBusNet.bus[3].udp 	droppedPkBadChecksum:count 	0
attr interpolationmode  none
attr title  "packets dropped (checksum error), count"
scalar LothianBusNet.bus[3].udp 	droppedPkWrongPort:count 	0
attr interpolationmode  none
attr title  "packets dropped (wrong port), count"
scalar LothianBusNet.bus[3].udp 	passedUpPk:count 	0
attr interpolationmode  none
attr title  "packets passed up, count"
scalar LothianBusNet.bus[3].udp 	sentPk:count 	99
attr interpolationmode  none
attr source  sentPk
attr title  "packets sent, count"
scalar LothianBusNet.bus[3].udp 	sentPk:sum(packetBytes) 	792
attr interpolationmode  none
attr source  sentPk
attr title  "packets sent, sum(packetBytes)"
scalar LothianBusNet.bus[3].udp 	rcvdPk:count 	0
attr interpolationmode  none
attr source  rcvdPk
attr title  "packets received, count"
scalar LothianBusNet.bus[3].udp 	rcvdPk:sum(packetBytes) 	0
attr interpolationmode  none
attr source  rcvdPk
attr title  "packets received, sum(packetBytes)"
scalar LothianBusNet.bus[3].networkLayer.arp 	failedResolution:count 	32
attr title  "ARP failed resolutions, count"
scalar LothianBusNet.bus[3].networkLayer.arp 	initiatedResolution:count 	33
attr title  "ARP initiated resolutions, count"
scalar LothianBusNet.bus[3].networkLayer.arp 	sentReplies:count 	0
attr title  "ARP replies sent, count"
scalar LothianBusNet.bus[3].networkLayer.arp 	sentReq:count 	99
attr title  "ARP request sent, count"
scalar LothianBusNet.bus[3].wlan.agent 	dropConfirm:count 	313
attr title  "dropped confirms, count"
scalar LothianBusNet.bus[3].wlan.agent 	acceptConfirm:count 	0
attr title  "accepted confirms, count"
scalar LothianBusNet.bus[3].wlan.agent 	sentRequest:count 	314
attr title  "sent requests, count"
scalar LothianBusNet.bus[3].wlan.mgmt 	dropPkByQueue:count 	0
attr interpolationmode  none
attr source  dropPkByQueue
attr title  "packets dropped by queue, count"
scalar LothianBusNet.bus[3].wlan.mgmt 	dropPkByQueue:sum(packetBytes) 	0
attr interpolationmode  none
attr source  dropPkByQueue
attr title  "packets dropped by queue, sum(packetBytes)"
scalar LothianBusNet.bus[3].wlan.mgmt 	dataQueueLen:max 	0
attr interpolationmode  sample-hold
attr title  "data queue length, max"
scalar LothianBusNet.bus[3].wlan.mgmt 	dataQueueLen:timeavg 	0
attr interpolationmode  sample-hold
attr title  "data queue length, timeavg"
scalar LothianBusNet.bus[3].wlan.mac 	"number of received packets" 	0
scalar LothianBusNet.bus[3].wlan.mac 	"number of collisions" 	0
scalar LothianBusNet.bus[3].wlan.mac 	"number of internal collisions" 	0
scalar LothianBusNet.bus[3].wlan.mac 	"number of retry for AC 0" 	0
scalar LothianBusNet.bus[3].wlan.mac 	"sent and received bits" 	100480
scalar LothianBusNet.bus[3].wlan.mac 	"sent packet within AC 0" 	0
scalar LothianBusNet.bus[3].wlan.mac 	"sent in TXOP " 	0
scalar LothianBusNet.bus[3].wlan.mac 	"sentWithoutRetry AC 0" 	0
scalar LothianBusNet.bus[3].wlan.mac 	"numGivenUp AC 0" 	0
scalar LothianBusNet.bus[3].wlan.mac 	"numDropped AC 0" 	0
scalar LothianBusNet.bus[3].wlan.mac 	rcvdPkFromLL:count 	182
attr interpolationmode  none
attr source  packetReceivedFromLower
attr title  "packets received from lower layer, count"
scalar LothianBusNet.bus[3].wlan.mac 	rcvdPkFromLL:sum(packetBytes) 	7280
attr interpolationmode  none
attr source  packetReceivedFromLower
attr title  "packets received from lower layer, sum(packetBytes)"
scalar LothianBusNet.bus[3].wlan.mac 	rcvdPkFromHL:count 	314
attr interpolationmode  none
attr source  packetReceivedFromUpper
attr title  "packets received from higher layer, count"
scalar LothianBusNet.bus[3].wlan.mac 	rcvdPkFromHL:sum(packetBytes) 	12560
attr interpolationmode  none
attr source  packetReceivedFromUpper
attr title  "packets received from higher layer, sum(packetBytes)"
scalar LothianBusNet.bus[3].wlan.mac 	sentDownPk:count 	314
attr interpolationmode  none
attr source  packetSentToLower
attr title  "packets sent to lower layer, count"
scalar LothianBusNet.bus[3].wlan.mac 	sentDownPk:sum(packetBytes) 	12560
attr interpolationmode  none
attr source  packetSentToLower
attr title  "packets sent to lower layer, sum(packetBytes)"
scalar LothianBusNet.bus[3].wlan.mac 	passedUpPk:count 	182
attr interpolationmode  none
attr source  packetSentToUpper
attr title  "packets passed to higher layer, count"
scalar LothianBusNet.bus[3].wlan.mac 	passedUpPk:sum(packetBytes) 	7280
attr interpolationmode  none
attr source  packetSentToUpper
attr title  "packets passed to higher layer, sum(packetBytes)"
scalar LothianBusNet.bus[3].wlan.radio 	lossRate:min 	0
attr interpolationmode  backward-sample-hold
attr title  "packet loss rate, min"
scalar LothianBusNet.bus[3].wlan.radio 	lossRate:max 	0
attr interpolationmode  backward-sample-hold
attr title  "packet loss rate, max"
scalar LothianBusNet.bus[3].wlan.radio 	lossRate:timeavg 	0
attr interpolationmode  backward-sample-hold
attr title  "packet loss rate, timeavg"
scalar LothianBusNet.bus[3].wlan.radio 	radioState:count 	993
attr interpolationmode  sample-hold
attr title  "radio state (enum), count"
statistic LothianBusNet.bus[3].wlan.radio 	channelNo:histogram
field count 1
field mean 0
field stddev nan
field sum 0
field sqrsum 0
field min 0
field max 0
attr interpolationmode  sample-hold
attr title  "channel no, histogram"
bin	-INF	0
bin	-0.5	0
bin	-0.46666666666667	0
bin	-0.43333333333333	0
bin	-0.4	0
bin	-0.36666666666667	0
bin	-0.33333333333333	0
bin	-0.3	0
bin	-0.26666666666667	0
bin	-0.23333333333333	0
bin	-0.2	0
bin	-0.16666666666667	0
bin	-0.13333333333333	0
bin	-0.1	0
bin	-0.066666666666667	0
bin	-0.033333333333333	0
bin	0	1
bin	0.033333333333333	0
bin	0.066666666666667	0
bin	0.1	0
bin	0.13333333333333	0
bin	0.16666666666667	0
bin	0.2	0
bin	0.23333333333333	0
bin	0.26666666666667	0
bin	0.3	0
bin	0.33333333333333	0
bin	0.36666666666667	0
bin	0.4	0
bin	0.43333333333333	0
bin	0.46666666666667	0
bin	0.5	0
scalar LothianBusNet.bus[3].wlan.radio 	bitrate:min 	54000000
attr interpolationmode  sample-hold
attr title  "tx bitrate, min"
attr unit  bps
scalar LothianBusNet.bus[3].wlan.radio 	bitrate:max 	54000000
attr interpolationmode  sample-hold
attr title  "tx bitrate, max"
attr unit  bps
scalar LothianBusNet.bus[3].wlan.radio 	bitrate:timeavg 	54000000
attr interpolationmode  sample-hold
attr title  "tx bitrate, timeavg"
attr unit  bps
scalar LothianBusNet.bus[4].udp.appOut[0].channel 	throughput:last 	nan
attr source  sumPerDuration(packetBits(messageSent))
attr unit  bps
scalar LothianBusNet.bus[4].udp 	droppedPkBadChecksum:count 	0
attr interpolationmode  none
attr title  "packets dropped (checksum error), count"
scalar LothianBusNet.bus[4].udp 	droppedPkWrongPort:count 	0
attr interpolationmode  none
attr title  "packets dropped (wrong port), count"
scalar LothianBusNet.bus[4].udp 	passedUpPk:count 	0
attr interpolationmode  none
attr title  "packets passed up, count"
scalar LothianBusNet.bus[4].udp 	sentPk:count 	99
attr interpolationmode  none
attr source  sentPk
attr title  "packets sent, count"
scalar LothianBusNet.bus[4].udp 	sentPk:sum(packetBytes) 	792
attr interpolationmode  none
attr source  sentPk
attr title  "packets sent, sum(packetBytes)"
scalar LothianBusNet.bus[4].udp 	rcvdPk:count 	0
attr interpolationmode  none
attr source  rcvdPk
attr title  "packets received, count"
scalar LothianBusNet.bus[4].udp 	rcvdPk:sum(packetBytes) 	0
attr interpolationmode  none
attr source  rcvdPk
attr title  "packets received, sum(packetBytes)"
scalar LothianBusNet.bus[4].networkLayer.arp 	failedResolution:count 	32
attr title  "ARP failed resolutions, count"
scalar LothianBusNet.bus[4].networkLayer.arp 	initiatedResolution:count 	33
attr title  "ARP initiated resolutions, count"
scalar LothianBusNet.bus[4].networkLayer.arp 	sentReplies:count 	0
attr title  "ARP replies sent, count"
scalar LothianBusNet.bus[4].networkLayer.arp 	sentReq:count 	99
attr title  "ARP request sent, count"
scalar LothianBusNet.bus[4].wlan.agent 	dropConfirm:count 	301
attr title  "dropped confirms, count"
scalar LothianBusNet.bus[4].wlan.agent 	acceptConfirm:count 	0
attr title  "accepted confirms, count"
scalar LothianBusNet.bus[4].wlan.agent 	sentRequest:count 	302
attr title  "sent requests, count"
scalar LothianBusNet.bus[4].wlan.mgmt 	dropPkByQueue:count 	0
attr interpolationmode  none
attr source  dropPkByQueue
attr title  "packets dropped by queue, count"
scalar LothianBusNet.bus[4].wlan.mgmt 	dropPkByQueue:sum(packetBytes) 	0
attr interpolationmode  none
attr source  dropPkByQueue
attr title  "packets dropped by queue, sum(packetBytes)"
scalar LothianBusNet.bus[4].wlan.mgmt 	dataQueueLen:max 	0
attr interpolationmode  sample-hold
attr title  "data queue length, max"
scalar LothianBusNet.bus[4].wlan.mgmt 	dataQueueLen:timeavg 	0
attr interpolationmode  sample-hold
attr title  "data queue length, timeavg"
scalar LothianBusNet.bus[4].wlan.mac 	"number of received packets" 	0
scalar LothianBusNet.bus[4].wlan.mac 	"number of collisions" 	0
scalar LothianBusNet.bus[4].wlan.mac 	"number of internal collisions" 	0
scalar LothianBusNet.bus[4].wlan.mac 	"number of retry for AC 0" 	0
scalar LothianBusNet.bus[4].wlan.mac 	"sent and received bits" 	96640
scalar LothianBusNet.bus[4].wlan.mac 	"sent packet within AC 0" 	0
scalar LothianBusNet.bus[4].wlan.mac 	"sent in TXOP " 	0
scalar LothianBusNet.bus[4].wlan.mac 	"sentWithoutRetry AC 0" 	0
scalar LothianBusNet.bus[4].wlan.mac 	"numGivenUp AC 0" 	0
scalar LothianBusNet.bus[4].wlan.mac 	"numDropped AC 0" 	0
scalar LothianBusNet.bus[4].wlan.mac 	rcvdPkFromLL:count 	190
attr interpolationmode  none
attr source  packetReceivedFromLower
attr title  "packets received from lower layer, count"
scalar LothianBusNet.bus[4].wlan.mac 	rcvdPkFromLL:sum(packetBytes) 	7600
attr interpolationmode  none
attr source  packetReceivedFromLower
attr title  "packets received from lower layer, sum(packetBytes)"
scalar LothianBusNet.bus[4].wlan.mac 	rcvdPkFromHL:count 	302
attr interpolationmode  none
attr source  packetReceivedFromUpper
attr title  "packets received from higher layer, count"
scalar LothianBusNet.bus[4].wlan.mac 	rcvdPkFromHL:sum(packetBytes) 	12080
attr interpolationmode  none
attr source  packetReceivedFromUpper
attr title  "packets received from higher layer, sum(packetBytes)"
scalar LothianBusNet.bus[4].wlan.mac 	sentDownPk:count 	302
attr interpolationmode  none
attr source  packetSentToLower
attr title  "packets sent to lower layer, count"
scalar LothianBusNet.bus[4].wlan.mac 	sentDownPk:sum(packetBytes) 	12080
attr interpolationmode  none
attr source  packetSentToLower
attr title  "packets sent to lower layer, sum(packetBytes)"
scalar LothianBusNet.bus[4].wlan.mac 	passedUpPk:count 	190
attr interpolationmode  none
attr source  packetSentToUpper
attr title  "packets passed to higher layer, count"
scalar LothianBusNet.bus[4].wlan.mac 	passedUpPk:sum(packetBytes) 	7600
attr interpolationmode  none
attr source  packetSentToUpper
attr title  "packets passed to higher layer, sum(packetBytes)"
scalar LothianBusNet.bus[4].wlan.radio 	lossRate:min 	0
attr interpolationmode  backward-sample-hold
attr title  "packet loss rate, min"
scalar LothianBusNet.bus[4].wlan.radio 	lossRate:max 	0
attr interpolationmode  backward-sample-hold
attr title  "packet loss rate, max"
scalar LothianBusNet.bus[4].wlan.radio 	lossRate:timeavg 	0
attr interpolationmode  backward-sample-hold
attr title  "packet loss rate, timeavg"
scalar LothianBusNet.bus[4].wlan.radio 	radioState:count 	985
attr interpolationmode  sample-hold
attr title  "radio state (enum), count"
statistic LothianBusNet.bus[4].wlan.radio 	channelNo:histogram
field count 1
field mean 0
field stddev nan
field sum 0
field sqrsum 0
field min 0
field max 0
attr interpolationmode  sample-hold
attr title  "channel no, histogram"
bin	-INF	0
bin	-0.5	0
bin	-0.46666666666667	0
bin	-0.43333333333333	0
bin	-0.4	0
bin	-0.36666666666667	0
bin	-0.33333333333333	0
bin	-0.3	0
bin	-0.26666666666667	0
bin	-0.23333333333333	0
bin	-0.2	0
bin	-0.16666666666667	0
bin	-0.13333333333333	0
bin	-0.1	0
bin	-0.066666666666667	0
bin	-0.033333333333333	0
bin	0	1
bin	0.033333333333333	0
bin	0.066666666666667	0
bin	0.1	0
bin	0.13333333333333	0
bin	0.16666666666667	0
bin	0.2	0
bin	0.23333333333333	0
bin	0.26666666666667	0
bin	0.3	0
bin	0.33333333333333	0
bin	0.36666666666667	0
bin	0.4	0
bin	0.43333333333333	0
bin	0.46666666666667	0
bin	0.5	0
scalar LothianBusNet.bus[4].wlan.radio 	bitrate:min 	54000000
attr interpolationmode  sample-hold
attr title  "tx bitrate, min"
attr unit  bps
scalar LothianBusNet.bus[4].wlan.radio 	bitrate:max 	54000000
attr interpolationmode  sample-hold
attr title  "tx bitrate, max"
attr unit  bps
scalar LothianBusNet.bus[4].wlan.radio 	bitrate:timeavg 	54000000
attr interpolationmode  sample-hold
attr title  "tx bitrate, timeavg"
attr unit  bps
scalar LothianBusNet.bus[5].udp.appOut[0].channel 	throughput:last 	nan
attr source  sumPerDuration(packetBits(messageSent))
attr unit  bps
scalar LothianBusNet.bus[5].udp 	droppedPkBadChecksum:count 	0
attr interpolationmode  none
attr title  "packets dropped (checksum error), count"
scalar LothianBusNet.bus[5].udp 	droppedPkWrongPort:count 	0
attr interpolationmode  none
attr title  "packets dropped (wrong port), count"
scalar LothianBusNet.bus[5].udp 	passedUpPk:count 	0
attr interpolationmode  none
attr title  "packets passed up, count"
scalar LothianBusNet.bus[5].udp 	sentPk:count 	99
attr interpolationmode  none
attr source  sentPk
attr title  "packets sent, count"
scalar LothianBusNet.bus[5].udp 	sentPk:sum(packetBytes) 	792
attr interpolationmode  none
attr source  sentPk
attr title  "packets sent, sum(packetBytes)"
scalar LothianBusNet.bus[5].udp 	rcvdPk:count 	0
attr interpolationmode  none
attr source  rcvdPk
attr title  "packets received, count"
scalar LothianBusNet.bus[5].udp 	rcvdPk:sum(packetBytes) 	0
attr interpolationmode  none
attr source  rcvdPk
attr title  "packets received, sum(packetBytes)"
scalar LothianBusNet.bus[5].networkLayer.arp 	failedResolution:count 	32
attr title  "ARP failed resolutions, count"
scalar LothianBusNet.bus[5].networkLayer.arp 	initiatedResolution:count 	33
attr title  "ARP initiated resolutions, count"
scalar LothianBusNet.bus[5].networkLayer.arp 	sentReplies:count 	0
attr title  "ARP replies sent, count"
scalar LothianBusNet.bus[5].networkLayer.arp 	sentReq:count 	99
attr title  "ARP request sent, count"
scalar LothianBusNet.bus[5].wlan.agent 	dropConfirm:count 	253
attr title  "dropped confirms, count"
scalar LothianBusNet.bus[5].wlan.agent 	acceptConfirm:count 	0
attr title  "accepted confirms, count"
scalar LothianBusNet.bus[5].wlan.agent 	sentRequest:count 	254
attr title  "sent requests, count"
scalar LothianBusNet.bus[5].wlan.mgmt 	dropPkByQueue:count 	0
attr interpolationmode  none
attr source  dropPkByQueue
attr title  "packets dropped by queue, count"
scalar LothianBusNet.bus[5].wlan.mgmt 	dropPkByQueue:sum(packetBytes) 	0
attr interpolationmode  none
attr source  dropPkByQueue
attr title  "packets dropped by queue, sum(packetBytes)"
scalar LothianBusNet.bus[5].wlan.mgmt 	dataQueueLen:max 	0
attr interpolationmode  sample-hold
attr title  "data queue length, max"
scalar LothianBusNet.bus[5].wlan.mgmt 	dataQueueLen:timeavg 	0
attr interpolationmode  sample-hold
attr title  "data queue length, timeavg"
scalar LothianBusNet.bus[5].wlan.mac 	"number of received packets" 	0
scalar LothianBusNet.bus[5].wlan.mac 	"number of collisions" 	0
scalar LothianBusNet.bus[5].wlan.mac 	"number of internal collisions" 	0
scalar LothianBusNet.bus[5].wlan.mac 	"number of retry for AC 0" 	0
scalar LothianBusNet.bus[5].wlan.mac 	"sent and received bits" 	81280
scalar LothianBusNet.bus[5].wlan.mac 	"sent packet within AC 0" 	0
scalar LothianBusNet.bus[5].wlan.mac 	"sent in TXOP " 	0
scalar LothianBusNet.bus[5].wlan.mac 	"sentWithoutRetry AC 0" 	0
scalar LothianBusNet.bus[5].wlan.mac 	"numGivenUp AC 0" 	0
scalar LothianBusNet.bus[5].wlan.mac 	"numDropped AC 0" 	0
scalar LothianBusNet.bus[5].wlan.mac 	rcvdPkFromLL:count 	1633
attr interpolationmode  none
attr source  packetReceivedFromLower
attr title  "packets received from lower layer, count"
scalar LothianBusNet.bus[5].wlan.mac 	rcvdPkFromLL:sum(packetBytes) 	65320
attr interpolationmode  none
attr source  packetReceivedFromLower
attr title  "packets received from lower layer, sum(packetBytes)"
scalar LothianBusNet.bus[5].wlan.mac 	rcvdPkFromHL:count 	254
attr interpolationmode  none
attr source  packetReceivedFromUpper
attr title  "packets received from higher layer, count"
scalar LothianBusNet.bus[5].wlan.mac 	rcvdPkFromHL:sum(packetBytes) 	10160
attr interpolationmode  none
attr source  packetReceivedFromUpper
attr title  "packets received from higher layer, sum(packetBytes)"
scalar LothianBusNet.bus[5].wlan.mac 	sentDownPk:count 	254
attr interpolationmode  none
attr source  packetSentToLower
attr title  "packets sent to lower layer, count"
scalar LothianBusNet.bus[5].wlan.mac 	sentDownPk:sum(packetBytes) 	10160
attr interpolationmode  none
attr source  packetSentToLower
attr title  "packets sent to lower layer, sum(packetBytes)"
scalar LothianBusNet.bus[5].wlan.mac 	passedUpPk:count 	1633
attr interpolationmode  none
attr source  packetSentToUpper
attr title  "packets passed to higher layer, count"
scalar LothianBusNet.bus[5].wlan.mac 	passedUpPk:sum(packetBytes) 	65320
attr interpolationmode  none
attr source  packetSentToUpper
attr title  "packets passed to higher layer, sum(packetBytes)"
scalar LothianBusNet.bus[5].wlan.radio 	lossRate:min 	0
attr interpolationmode  backward-sample-hold
attr title  "packet loss rate, min"
scalar LothianBusNet.bus[5].wlan.radio 	lossRate:max 	0
attr interpolationmode  backward-sample-hold
attr title  "packet loss rate, max"
scalar LothianBusNet.bus[5].wlan.radio 	lossRate:timeavg 	0
attr interpolationmode  backward-sample-hold
attr title  "packet loss rate, timeavg"
scalar LothianBusNet.bus[5].wlan.radio 	radioState:count 	3775
attr interpolationmode  sample-hold
attr title  "radio state (enum), count"
statistic LothianBusNet.bus[5].wlan.radio 	channelNo:histogram
field count 1
field mean 0
field stddev nan
field sum 0
field sqrsum 0
field min 0
field max 0
attr interpolationmode  sample-hold
attr title  "channel no, histogram"
bin	-INF	0
bin	-0.5	0
bin	-0.46666666666667	0
bin	-0.43333333333333	0
bin	-0.4	0
bin	-0.36666666666667	0
bin	-0.33333333333333	0
bin	-0.3	0
bin	-0.26666666666667	0
bin	-0.23333333333333	0
bin	-0.2	0
bin	-0.16666666666667	0
bin	-0.13333333333333	0
bin	-0.1	0
bin	-0.066666666666667	0
bin	-0.033333333333333	0
bin	0	1
bin	0.033333333333333	0
bin	0.066666666666667	0
bin	0.1	0
bin	0.13333333333333	0
bin	0.16666666666667	0
bin	0.2	0
bin	0.23333333333333	0
bin	0.26666666666667	0
bin	0.3	0
bin	0.33333333333333	0
bin	0.36666666666667	0
bin	0.4	0
bin	0.43333333333333	0
bin	0.46666666666667	0
bin	0.5	0
scalar LothianBusNet.bus[5].wlan.radio 	bitrate:min 	54000000
attr interpolationmode  sample-hold
attr title  "tx bitrate, min"
attr unit  bps
scalar LothianBusNet.bus[5].wlan.radio 	bitrate:max 	54000000
attr interpolationmode  sample-hold
attr title  "tx bitrate, max"
attr unit  bps
scalar LothianBusNet.bus[5].wlan.radio 	bitrate:timeavg 	54000000
attr interpolationmode  sample-hold
attr title  "tx bitrate, timeavg"
attr unit  bps
scalar LothianBusNet.bus[6].udp.appOut[0].channel 	throughput:last 	nan
attr source  sumPerDuration(packetBits(messageSent))
attr unit  bps
scalar LothianBusNet.bus[6].udp 	droppedPkBadChecksum:count 	0
attr interpolationmode  none
attr title  "packets dropped (checksum error), count"
scalar LothianBusNet.bus[6].udp 	droppedPkWrongPort:count 	0
attr interpolationmode  none
attr title  "packets dropped (wrong port), count"
scalar LothianBusNet.bus[6].udp 	passedUpPk:count 	0
attr interpolationmode  none
attr title  "packets passed up, count"
scalar LothianBusNet.bus[6].udp 	sentPk:count 	99
attr interpolationmode  none
attr source  sentPk
attr title  "packets sent, count"
scalar LothianBusNet.bus[6].udp 	sentPk:sum(packetBytes) 	792
attr interpolationmode  none
attr source  sentPk
attr title  "packets sent, sum(packetBytes)"
scalar LothianBusNet.bus[6].udp 	rcvdPk:count 	0
attr interpolationmode  none
attr source  rcvdPk
attr title  "packets received, count"
scalar LothianBusNet.bus[6].udp 	rcvdPk:sum(packetBytes) 	0
attr interpolationmode  none
attr source  rcvdPk
attr title  "packets received, sum(packetBytes)"
scalar LothianBusNet.bus[6].networkLayer.arp 	failedResolution:count 	32
attr title  "ARP failed resolutions, count"
scalar LothianBusNet.bus[6].networkLayer.arp 	initiatedResolution:count 	33
attr title  "ARP initiated resolutions, count"
scalar LothianBusNet.bus[6].networkLayer.arp 	sentReplies:count 	0
attr title  "ARP replies sent, count"
scalar LothianBusNet.bus[6].networkLayer.arp 	sentReq:count 	99
attr title  "ARP request sent, count"
scalar LothianBusNet.bus[6].wlan.agent 	dropConfirm:count 	254
attr title  "dropped confirms, count"
scalar LothianBusNet.bus[6].wlan.agent 	acceptConfirm:count 	0
attr title  "accepted confirms, count"
scalar LothianBusNet.bus[6].wlan.agent 	sentRequest:count 	255
attr title  "sent requests, count"
scalar LothianBusNet.bus[6].wlan.mgmt 	dropPkByQueue:count 	0
attr interpolationmode  none
attr source  dropPkByQueue
attr title  "packets dropped by queue, count"
scalar LothianBusNet.bus[6].wlan.mgmt 	dropPkByQueue:sum(packetBytes) 	0
attr interpolationmode  none
attr source  dropPkByQueue
attr title  "packets dropped by queue, sum(packetBytes)"
scalar LothianBusNet.bus[6].wlan.mgmt 	dataQueueLen:max 	0
attr interpolationmode  sample-hold
attr title  "data queue length, max"
scalar LothianBusNet.bus[6].wlan.mgmt 	dataQueueLen:timeavg 	0
attr interpolationmode  sample-hold
attr title  "data queue length, timeavg"
scalar LothianBusNet.bus[6].wlan.mac 	"number of received packets" 	0
scalar LothianBusNet.bus[6].wlan.mac 	"number of collisions" 	0
scalar LothianBusNet.bus[6].wlan.mac 	"number of internal collisions" 	0
scalar LothianBusNet.bus[6].wlan.mac 	"number of retry for AC 0" 	0
scalar LothianBusNet.bus[6].wlan.mac 	"sent and received bits" 	81600
scalar LothianBusNet.bus[6].wlan.mac 	"sent packet within AC 0" 	0
scalar LothianBusNet.bus[6].wlan.mac 	"sent in TXOP " 	0
scalar LothianBusNet.bus[6].wlan.mac 	"sentWithoutRetry AC 0" 	0
scalar LothianBusNet.bus[6].wlan.mac 	"numGivenUp AC 0" 	0
scalar LothianBusNet.bus[6].wlan.mac 	"numDropped AC 0" 	0
scalar LothianBusNet.bus[6].wlan.mac 	rcvdPkFromLL:count 	1839
attr interpolationmode  none
attr source  packetReceivedFromLower
attr title  "packets received from lower layer, count"
scalar LothianBusNet.bus[6].wlan.mac 	rcvdPkFromLL:sum(packetBytes) 	73560
attr interpolationmode  none
attr source  packetReceivedFromLower
attr title  "packets received from lower layer, sum(packetBytes)"
scalar LothianBusNet.bus[6].wlan.mac 	rcvdPkFromHL:count 	255
attr interpolationmode  none
attr source  packetReceivedFromUpper
attr title  "packets received from higher layer, count"
scalar LothianBusNet.bus[6].wlan.mac 	rcvdPkFromHL:sum(packetBytes) 	10200
attr interpolationmode  none
attr source  packetReceivedFromUpper
attr title  "packets received from higher layer, sum(packetBytes)"
scalar LothianBusNet.bus[6].wlan.mac 	sentDownPk:count 	255
attr interpolationmode  none
attr source  packetSentToLower
attr title  "packets sent to lower layer, count"
scalar LothianBusNet.bus[6].wlan.mac 	sentDownPk:sum(packetBytes) 	10200
attr interpolationmode  none
attr source  packetSentToLower
attr title  "packets sent to lower layer, sum(packetBytes)"
scalar LothianBusNet.bus[6].wlan.mac 	passedUpPk:count 	1839
attr interpolationmode  none
attr source  packetSentToUpper
attr title  "packets passed to higher layer, count"
scalar LothianBusNet.bus[6].wlan.mac 	passedUpPk:sum(packetBytes) 	73560
attr interpolationmode  none
attr source  packetSentToUpper
attr title  "packets passed to higher layer, sum(packetBytes)"
scalar LothianBusNet.bus[6].wlan.radio 	lossRate:min 	0
attr interpolationmode  backward-sample-hold
attr title  "packet loss rate, min"
scalar LothianBusNet.bus[6].wlan.radio 	lossRate:max 	0
attr interpolationmode  backward-sample-hold
attr title  "packet loss rate, max"
scalar LothianBusNet.bus[6].wlan.radio 	lossRate:timeavg 	0
attr interpolationmode  backward-sample-hold
attr title  "packet loss rate, timeavg"
scalar LothianBusNet.bus[6].wlan.radio 	radioState:count 	4189
attr interpolationmode  sample-hold
attr title  "radio state (enum), count"
statistic LothianBusNet.bus[6].wlan.radio 	channelNo:histogram
field count 1
field mean 0
field stddev nan
field sum 0
field sqrsum 0
field min 0
field max 0
attr interpolationmode  sample-hold
attr title  "channel no, histogram"
bin	-INF	0
bin	-0.5	0
bin	-0.46666666666667	0
bin	-0.43333333333333	0
bin	-0.4	0
bin	-0.36666666666667	0
bin	-0.33333333333333	0
bin	-0.3	0
bin	-0.26666666666667	0
bin	-0.23333333333333	0
bin	-0.2	0
bin	-0.16666666666667	0
bin	-0.13333333333333	0
bin	-0.1	0
bin	-0.066666666666667	0
bin	-0.033333333333333	0
bin	0	1
bin	0.033333333333333	0
bin	0.066666666666667	0
bin	0.1	0
bin	0.13333333333333	0
bin	0.16666666666667	0
bin	0.2	0
bin	0.23333333333333	0
bin	0.26666666666667	0
bin	0.3	0
bin	0.33333333333333	0
bin	0.36666666666667	0
bin	0.4	0
bin	0.43333333333333	0
bin	0.46666666666667	0
bin	0.5	0
scalar LothianBusNet.bus[6].wlan.radio 	bitrate:min 	54000000
attr interpolationmode  sample-hold
attr title  "tx bitrate, min"
attr unit  bps
scalar LothianBusNet.bus[6].wlan.radio 	bitrate:max 	54000000
attr interpolationmode  sample-hold
attr title  "tx bitrate, max"
attr unit  bps
scalar LothianBusNet.bus[6].wlan.radio 	bitrate:timeavg 	54000000
attr interpolationmode  sample-hold
attr title  "tx bitrate, timeavg"
attr unit  bps
scalar LothianBusNet.bus[7].udp.appOut[0].channel 	throughput:last 	nan
attr source  sumPerDuration(packetBits(messageSent))
attr unit  bps
scalar LothianBusNet.bus[7].udp 	droppedPkBadChecksum:count 	0
attr interpolationmode  none
attr title  "packets dropped (checksum error), count"
scalar LothianBusNet.bus[7].udp 	droppedPkWrongPort:count 	0
attr interpolationmode  none
attr title  "packets dropped (wrong port), count"
scalar LothianBusNet.bus[7].udp 	passedUpPk:count 	0
attr interpolationmode  none
attr title  "packets passed up, count"
scalar LothianBusNet.bus[7].udp 	sentPk:count 	99
attr interpolationmode  none
attr source  sentPk
attr title  "packets sent, count"
scalar LothianBusNet.bus[7].udp 	sentPk:sum(packetBytes) 	792
attr interpolationmode  none
attr source  sentPk
attr title  "packets sent, sum(packetBytes)"
scalar LothianBusNet.bus[7].udp 	rcvdPk:count 	0
attr interpolationmode  none
attr source  rcvdPk
attr title  "packets received, count"
scalar LothianBusNet.bus[7].udp 	rcvdPk:sum(packetBytes) 	0
attr interpolationmode  none
attr source  rcvdPk
attr title  "packets received, sum(packetBytes)"
scalar LothianBusNet.bus[7].networkLayer.arp 	failedResolution:count 	32
attr title  "ARP failed resolutions, count"
scalar LothianBusNet.bus[7].networkLayer.arp 	initiatedResolution:count 	33
attr title  "ARP initiated resolutions, count"
scalar LothianBusNet.bus[7].networkLayer.arp 	sentReplies:count 	0
attr title  "ARP replies sent, count"
scalar LothianBusNet.bus[7].networkLayer.arp 	sentReq:count 	99
attr title  "ARP request sent, count"
scalar LothianBusNet.bus[7].wlan.agent 	dropConfirm:count 	371
attr title  "dropped confirms, count"
scalar LothianBusNet.bus[7].wlan.agent 	acceptConfirm:count 	0
attr title  "accepted confirms, count"
scalar LothianBusNet.bus[7].wlan.agent 	sentRequest:count 	372
attr title  "sent requests, count"
scalar LothianBusNet.bus[7].wlan.mgmt 	dropPkByQueue:count 	0
attr interpolationmode  none
attr source  dropPkByQueue
attr title  "packets dropped by queue, count"
scalar LothianBusNet.bus[7].wlan.mgmt 	dropPkByQueue:sum(packetBytes) 	0
attr interpolationmode  none
attr source  dropPkByQueue
attr title  "packets dropped by queue, sum(packetBytes)"
scalar LothianBusNet.bus[7].wlan.mgmt 	dataQueueLen:max 	0
attr interpolationmode  sample-hold
attr title  "data queue length, max"
scalar LothianBusNet.bus[7].wlan.mgmt 	dataQueueLen:timeavg 	0
attr interpolationmode  sample-hold
attr title  "data queue length, timeavg"
scalar LothianBusNet.bus[7].wlan.mac 	"number of received packets" 	0
scalar LothianBusNet.bus[7].wlan.mac 	"number of collisions" 	0
scalar LothianBusNet.bus[7].wlan.mac 	"number of internal collisions" 	0
scalar LothianBusNet.bus[7].wlan.mac 	"number of retry for AC 0" 	0
scalar LothianBusNet.bus[7].wlan.mac 	"sent and received bits" 	119040
scalar LothianBusNet.bus[7].wlan.mac 	"sent packet within AC 0" 	0
scalar LothianBusNet.bus[7].wlan.mac 	"sent in TXOP " 	0
scalar LothianBusNet.bus[7].wlan.mac 	"sentWithoutRetry AC 0" 	0
scalar LothianBusNet.bus[7].wlan.mac 	"numGivenUp AC 0" 	0
scalar LothianBusNet.bus[7].wlan.mac 	"numDropped AC 0" 	0
scalar LothianBusNet.bus[7].wlan.mac 	rcvdPkFromLL:count 	57
attr interpolationmode  none
attr source  packetReceivedFromLower
attr title  "packets received from lower layer, count"
scalar LothianBusNet.bus[7].wlan.mac 	rcvdPkFromLL:sum(packetBytes) 	2280
attr interpolationmode  none
attr source  packetReceivedFromLower
attr title  "packets received from lower layer, sum(packetBytes)"
scalar LothianBusNet.bus[7].wlan.mac 	rcvdPkFromHL:count 	372
attr interpolationmode  none
attr source  packetReceivedFromUpper
attr title  "packets received from higher layer, count"
scalar LothianBusNet.bus[7].wlan.mac 	rcvdPkFromHL:sum(packetBytes) 	14880
attr interpolationmode  none
attr source  packetReceivedFromUpper
attr title  "packets received from higher layer, sum(packetBytes)"
scalar LothianBusNet.bus[7].wlan.mac 	sentDownPk:count 	372
attr interpolationmode  none
attr source  packetSentToLower
attr title  "packets sent to lower layer, count"
scalar LothianBusNet.bus[7].wlan.mac 	sentDownPk:sum(packetBytes) 	14880
attr interpolationmode  none
attr source  packetSentToLower
attr title  "packets sent to lower layer, sum(packetBytes)"
scalar LothianBusNet.bus[7].wlan.mac 	passedUpPk:count 	57
attr interpolationmode  none
attr source  packetSentToUpper
attr title  "packets passed to higher layer, count"
scalar LothianBusNet.bus[7].wlan.mac 	passedUpPk:sum(packetBytes) 	2280
attr interpolationmode  none
attr source  packetSentToUpper
attr title  "packets passed to higher layer, sum(packetBytes)"
scalar LothianBusNet.bus[7].wlan.radio 	lossRate:min 	0
attr interpolationmode  backward-sample-hold
attr title  "packet loss rate, min"
scalar LothianBusNet.bus[7].wlan.radio 	lossRate:max 	0
attr interpolationmode  backward-sample-hold
attr title  "packet loss rate, max"
scalar LothianBusNet.bus[7].wlan.radio 	lossRate:timeavg 	0
attr interpolationmode  backward-sample-hold
attr title  "packet loss rate, timeavg"
scalar LothianBusNet.bus[7].wlan.radio 	radioState:count 	859
attr interpolationmode  sample-hold
attr title  "radio state (enum), count"
statistic LothianBusNet.bus[7].wlan.radio 	channelNo:histogram
field count 1
field mean 0
field stddev nan
field sum 0
field sqrsum 0
field min 0
field max 0
attr interpolationmode  sample-hold
attr title  "channel no, histogram"
bin	-INF	0
bin	-0.5	0
bin	-0.46666666666667	0
bin	-0.43333333333333	0
bin	-0.4	0
bin	-0.36666666666667	0
bin	-0.33333333333333	0
bin	-0.3	0
bin	-0.26666666666667	0
bin	-0.23333333333333	0
bin	-0.2	0
bin	-0.16666666666667	0
bin	-0.13333333333333	0
bin	-0.1	0
bin	-0.066666666666667	0
bin	-0.033333333333333	0
bin	0	1
bin	0.033333333333333	0
bin	0.066666666666667	0
bin	0.1	0
bin	0.13333333333333	0
bin	0.16666666666667	0
bin	0.2	0
bin	0.23333333333333	0
bin	0.26666666666667	0
bin	0.3	0
bin	0.33333333333333	0
bin	0.36666666666667	0
bin	0.4	0
bin	0.43333333333333	0
bin	0.46666666666667	0
bin	0.5	0
scalar LothianBusNet.bus[7].wlan.radio 	bitrate:min 	54000000
[...]
attr interpolationmode  sample-hold
attr title  "tx bitrate, max"
attr unit  bps
scalar LothianBusNet.bus[141].wlan.radio 	bitrate:timeavg 	54000000
attr interpolationmode  sample-hold
attr title  "tx bitrate, timeavg"
attr unit  bps
scalar LothianBusNet.bus[142].udp.appOut[0].channel 	throughput:last 	nan
attr source  sumPerDuration(packetBits(messageSent))
attr unit  bps
scalar LothianBusNet.bus[142].udp 	droppedPkBadChecksum:count 	0
attr interpolationmode  none
attr title  "packets dropped (checksum error), count"
scalar LothianBusNet.bus[142].udp 	droppedPkWrongPort:count 	0
attr interpolationmode  none
attr title  "packets dropped (wrong port), count"
scalar LothianBusNet.bus[142].udp 	passedUpPk:count 	0
attr interpolationmode  none
attr title  "packets passed up, count"
scalar LothianBusNet.bus[142].udp 	sentPk:count 	99
attr interpolationmode  none
attr source  sentPk
attr title  "packets sent, count"
scalar LothianBusNet.bus[142].udp 	sentPk:sum(packetBytes) 	792
attr interpolationmode  none
attr source  sentPk
attr title  "packets sent, sum(packetBytes)"
scalar LothianBusNet.bus[142].udp 	rcvdPk:count 	0
attr interpolationmode  none
attr source  rcvdPk
attr title  "packets received, count"
scalar LothianBusNet.bus[142].udp 	rcvdPk:sum(packetBytes) 	0
attr interpolationmode  none
attr source  rcvdPk
attr title  "packets received, sum(packetBytes)"
scalar LothianBusNet.bus[142].networkLayer.arp 	failedResolution:count 	0
attr title  "ARP failed resolutions, count"
scalar LothianBusNet.bus[142].networkLayer.arp 	initiatedResolution:count 	1
attr title  "ARP initiated resolutions, count"
scalar LothianBusNet.bus[142].networkLayer.arp 	sentReplies:count 	0
attr title  "ARP replies sent, count"
scalar LothianBusNet.bus[142].networkLayer.arp 	sentReq:count 	1
attr title  "ARP request sent, count"
scalar LothianBusNet.bus[142].wlan.agent 	dropConfirm:count 	186
attr title  "dropped confirms, count"
scalar LothianBusNet.bus[142].wlan.agent 	acceptConfirm:count 	3
attr title  "accepted confirms, count"
scalar LothianBusNet.bus[142].wlan.agent 	sentRequest:count 	190
attr title  "sent requests, count"
scalar LothianBusNet.bus[142].wlan.mgmt 	dropPkByQueue:count 	0
attr interpolationmode  none
attr source  dropPkByQueue
attr title  "packets dropped by queue, count"
scalar LothianBusNet.bus[142].wlan.mgmt 	dropPkByQueue:sum(packetBytes) 	0
attr interpolationmode  none
attr source  dropPkByQueue
attr title  "packets dropped by queue, sum(packetBytes)"
scalar LothianBusNet.bus[142].wlan.mgmt 	dataQueueLen:max 	0
attr interpolationmode  sample-hold
attr title  "data queue length, max"
scalar LothianBusNet.bus[142].wlan.mgmt 	dataQueueLen:timeavg 	0
attr interpolationmode  sample-hold
attr title  "data queue length, timeavg"
scalar LothianBusNet.bus[142].wlan.mac 	"number of received packets" 	5
scalar LothianBusNet.bus[142].wlan.mac 	"number of collisions" 	0
scalar LothianBusNet.bus[142].wlan.mac 	"number of internal collisions" 	0
scalar LothianBusNet.bus[142].wlan.mac 	"number of retry for AC 0" 	6
scalar LothianBusNet.bus[142].wlan.mac 	"sent and received bits" 	90416
scalar LothianBusNet.bus[142].wlan.mac 	"sent packet within AC 0" 	56
scalar LothianBusNet.bus[142].wlan.mac 	"sent in TXOP " 	0
scalar LothianBusNet.bus[142].wlan.mac 	"sentWithoutRetry AC 0" 	56
scalar LothianBusNet.bus[142].wlan.mac 	"numGivenUp AC 0" 	1
scalar LothianBusNet.bus[142].wlan.mac 	"numDropped AC 0" 	0
scalar LothianBusNet.bus[142].wlan.mac 	rcvdPkFromLL:count 	612
attr interpolationmode  none
attr source  packetReceivedFromLower
attr title  "packets received from lower layer, count"
scalar LothianBusNet.bus[142].wlan.mac 	rcvdPkFromLL:sum(packetBytes) 	44024
attr interpolationmode  none
attr source  packetReceivedFromLower
attr title  "packets received from lower layer, sum(packetBytes)"
scalar LothianBusNet.bus[142].wlan.mac 	rcvdPkFromHL:count 	244
attr interpolationmode  none
attr source  packetReceivedFromUpper
attr title  "packets received from higher layer, count"
scalar LothianBusNet.bus[142].wlan.mac 	rcvdPkFromHL:sum(packetBytes) 	11372
attr interpolationmode  none
attr source  packetReceivedFromUpper
attr title  "packets received from higher layer, sum(packetBytes)"
scalar LothianBusNet.bus[142].wlan.mac 	sentDownPk:count 	255
attr interpolationmode  none
attr source  packetSentToLower
attr title  "packets sent to lower layer, count"
scalar LothianBusNet.bus[142].wlan.mac 	sentDownPk:sum(packetBytes) 	11862
attr interpolationmode  none
attr source  packetSentToLower
attr title  "packets sent to lower layer, sum(packetBytes)"
scalar LothianBusNet.bus[142].wlan.mac 	passedUpPk:count 	555
attr interpolationmode  none
attr source  packetSentToUpper
attr title  "packets passed to higher layer, count"
scalar LothianBusNet.bus[142].wlan.mac 	passedUpPk:sum(packetBytes) 	43170
attr interpolationmode  none
attr source  packetSentToUpper
attr title  "packets passed to higher layer, sum(packetBytes)"
scalar LothianBusNet.bus[142].wlan.radio 	lossRate:min 	0
attr interpolationmode  backward-sample-hold
attr title  "packet loss rate, min"
scalar LothianBusNet.bus[142].wlan.radio 	lossRate:max 	0
attr interpolationmode  backward-sample-hold
attr title  "packet loss rate, max"
scalar LothianBusNet.bus[142].wlan.radio 	lossRate:timeavg 	0
attr interpolationmode  backward-sample-hold
attr title  "packet loss rate, timeavg"
scalar LothianBusNet.bus[142].wlan.radio 	radioState:count 	1735
attr interpolationmode  sample-hold
attr title  "radio state (enum), count"
statistic LothianBusNet.bus[142].wlan.radio 	channelNo:histogram
field count 1
field mean 0
field stddev nan
field sum 0
field sqrsum 0
field min 0
field max 0
attr interpolationmode  sample-hold
attr title  "channel no, histogram"
bin	-INF	0
bin	-0.5	0
bin	-0.46666666666667	0
bin	-0.43333333333333	0
bin	-0.4	0
bin	-0.36666666666667	0
bin	-0.33333333333333	0
bin	-0.3	0
bin	-0.26666666666667	0
bin	-0.23333333333333	0
bin	-0.2	0
bin	-0.16666666666667	0
bin	-0.13333333333333	0
bin	-0.1	0
bin	-0.066666666666667	0
bin	-0.033333333333333	0
bin	0	1
bin	0.033333333333333	0
bin	0.066666666666667	0
bin	0.1	0
bin	0.13333333333333	0
bin	0.16666666666667	0
bin	0.2	0
bin	0.23333333333333	0
bin	0.26666666666667	0
bin	0.3	0
bin	0.33333333333333	0
bin	0.36666666666667	0
bin	0.4	0
bin	0.43333333333333	0
bin	0.46666666666667	0
bin	0.5	0
scalar LothianBusNet.bus[142].wlan.radio 	bitrate:min 	54000000
attr interpolationmode  sample-hold
attr title  "tx bitrate, min"
attr unit  bps
scalar LothianBusNet.bus[142].wlan.radio 	bitrate:max 	54000000
attr interpolationmode  sample-hold
attr title  "tx bitrate, max"
attr unit  bps
scalar LothianBusNet.bus[142].wlan.radio 	bitrate:timeavg 	54000000
attr interpolationmode  sample-hold
attr title  "tx bitrate, timeavg"
attr unit  bps
scalar LothianBusNet.bus[143].udp.appOut[0].channel 	throughput:last 	nan
attr source  sumPerDuration(packetBits(messageSent))
attr unit  bps
scalar LothianBusNet.bus[143].udp 	droppedPkBadChecksum:count 	0
attr interpolationmode  none
attr title  "packets dropped (checksum error), count"
scalar LothianBusNet.bus[143].udp 	droppedPkWrongPort:count 	0
attr interpolationmode  none
attr title  "packets dropped (wrong port), count"
scalar LothianBusNet.bus[143].udp 	passedUpPk:count 	0
attr interpolationmode  none
attr title  "packets passed up, count"
scalar LothianBusNet.bus[143].udp 	sentPk:count 	99
attr interpolationmode  none
attr source  sentPk
attr title  "packets sent, count"
scalar LothianBusNet.bus[143].udp 	sentPk:sum(packetBytes) 	792
attr interpolationmode  none
attr source  sentPk
attr title  "packets sent, sum(packetBytes)"
scalar LothianBusNet.bus[143].udp 	rcvdPk:count 	0
attr interpolationmode  none
attr source  rcvdPk
attr title  "packets received, count"
scalar LothianBusNet.bus[143].udp 	rcvdPk:sum(packetBytes) 	0
attr interpolationmode  none
attr source  rcvdPk
attr title  "packets received, sum(packetBytes)"
scalar LothianBusNet.bus[143].networkLayer.arp 	failedResolution:count 	32
attr title  "ARP failed resolutions, count"
scalar LothianBusNet.bus[143].networkLayer.arp 	initiatedResolution:count 	33
attr title  "ARP initiated resolutions, count"
scalar LothianBusNet.bus[143].networkLayer.arp 	sentReplies:count 	0
attr title  "ARP replies sent, count"
scalar LothianBusNet.bus[143].networkLayer.arp 	sentReq:count 	99
attr title  "ARP request sent, count"
scalar LothianBusNet.bus[143].wlan.agent 	dropConfirm:count 	354
attr title  "dropped confirms, count"
scalar LothianBusNet.bus[143].wlan.agent 	acceptConfirm:count 	0
attr title  "accepted confirms, count"
scalar LothianBusNet.bus[143].wlan.agent 	sentRequest:count 	355
attr title  "sent requests, count"
scalar LothianBusNet.bus[143].wlan.mgmt 	dropPkByQueue:count 	0
attr interpolationmode  none
attr source  dropPkByQueue
attr title  "packets dropped by queue, count"
scalar LothianBusNet.bus[143].wlan.mgmt 	dropPkByQueue:sum(packetBytes) 	0
attr interpolationmode  none
attr source  dropPkByQueue
attr title  "packets dropped by queue, sum(packetBytes)"
scalar LothianBusNet.bus[143].wlan.mgmt 	dataQueueLen:max 	0
attr interpolationmode  sample-hold
attr title  "data queue length, max"
scalar LothianBusNet.bus[143].wlan.mgmt 	dataQueueLen:timeavg 	0
attr interpolationmode  sample-hold
attr title  "data queue length, timeavg"
scalar LothianBusNet.bus[143].wlan.mac 	"number of received packets" 	0
scalar LothianBusNet.bus[143].wlan.mac 	"number of collisions" 	0
scalar LothianBusNet.bus[143].wlan.mac 	"number of internal collisions" 	0
scalar LothianBusNet.bus[143].wlan.mac 	"number of retry for AC 0" 	0
scalar LothianBusNet.bus[143].wlan.mac 	"sent and received bits" 	113280
scalar LothianBusNet.bus[143].wlan.mac 	"sent packet within AC 0" 	0
scalar LothianBusNet.bus[143].wlan.mac 	"sent in TXOP " 	0
scalar LothianBusNet.bus[143].wlan.mac 	"sentWithoutRetry AC 0" 	0
scalar LothianBusNet.bus[143].wlan.mac 	"numGivenUp AC 0" 	0
scalar LothianBusNet.bus[143].wlan.mac 	"numDropped AC 0" 	0
scalar LothianBusNet.bus[143].wlan.mac 	rcvdPkFromLL:count 	87
attr interpolationmode  none
attr source  packetReceivedFromLower
attr title  "packets received from lower layer, count"
scalar LothianBusNet.bus[143].wlan.mac 	rcvdPkFromLL:sum(packetBytes) 	3480
attr interpolationmode  none
attr source  packetReceivedFromLower
attr title  "packets received from lower layer, sum(packetBytes)"
scalar LothianBusNet.bus[143].wlan.mac 	rcvdPkFromHL:count 	354
attr interpolationmode  none
attr source  packetReceivedFromUpper
attr title  "packets received from higher layer, count"
scalar LothianBusNet.bus[143].wlan.mac 	rcvdPkFromHL:sum(packetBytes) 	14160
attr interpolationmode  none
attr source  packetReceivedFromUpper
attr title  "packets received from higher layer, sum(packetBytes)"
scalar LothianBusNet.bus[143].wlan.mac 	sentDownPk:count 	354
attr interpolationmode  none
attr source  packetSentToLower
attr title  "packets sent to lower layer, count"
scalar LothianBusNet.bus[143].wlan.mac 	sentDownPk:sum(packetBytes) 	14160
attr interpolationmode  none
attr source  packetSentToLower
attr title  "packets sent to lower layer, sum(packetBytes)"
scalar LothianBusNet.bus[143].wlan.mac 	passedUpPk:count 	87
attr interpolationmode  none
attr source  packetSentToUpper
attr title  "packets passed to higher layer, count"
scalar LothianBusNet.bus[143].wlan.mac 	passedUpPk:sum(packetBytes) 	3480
attr interpolationmode  none
attr source  packetSentToUpper
attr title  "packets passed to higher layer, sum(packetBytes)"
scalar LothianBusNet.bus[143].wlan.radio 	lossRate:min 	0
attr interpolationmode  backward-sample-hold
attr title  "packet loss rate, min"
scalar LothianBusNet.bus[143].wlan.radio 	lossRate:max 	0
attr interpolationmode  backward-sample-hold
attr title  "packet loss rate, max"
scalar LothianBusNet.bus[143].wlan.radio 	lossRate:timeavg 	0
attr interpolationmode  backward-sample-hold
attr title  "packet loss rate, timeavg"
scalar LothianBusNet.bus[143].wlan.radio 	radioState:count 	883
attr interpolationmode  sample-hold
attr title  "radio state (enum), count"
statistic LothianBusNet.bus[143].wlan.radio 	channelNo:histogram
field count 1
field mean 0
field stddev nan
field sum 0
field sqrsum 0
field min 0
field max 0
attr interpolationmode  sample-hold
attr title  "channel no, histogram"
bin	-INF	0
bin	-0.5	0
bin	-0.46666666666667	0
bin	-0.43333333333333	0
bin	-0.4	0
bin	-0.36666666666667	0
bin	-0.33333333333333	0
bin	-0.3	0
bin	-0.26666666666667	0
bin	-0.23333333333333	0
bin	-0.2	0
bin	-0.16666666666667	0
bin	-0.13333333333333	0
bin	-0.1	0
bin	-0.066666666666667	0
bin	-0.033333333333333	0
bin	0	1
bin	0.033333333333333	0
bin	0.066666666666667	0
bin	0.1	0
bin	0.13333333333333	0
bin	0.16666666666667	0
bin	0.2	0
bin	0.23333333333333	0
bin	0.26666666666667	0
bin	0.3	0
bin	0.33333333333333	0
bin	0.36666666666667	0
bin	0.4	0
bin	0.43333333333333	0
bin	0.46666666666667	0
bin	0.5	0
scalar LothianBusNet.bus[143].wlan.radio 	bitrate:min 	54000000
attr interpolationmode  sample-hold
attr title  "tx bitrate, min"
attr unit  bps
scalar LothianBusNet.bus[143].wlan.radio 	bitrate:max 	54000000
attr interpolationmode  sample-hold
attr title  "tx bitrate, max"
attr unit  bps
scalar LothianBusNet.bus[143].wlan.radio 	bitrate:timeavg 	54000000
attr interpolationmode  sample-hold
attr title  "tx bitrate, timeavg"
attr unit  bps
scalar LothianBusNet.bus[144].udp.appOut[0].channel 	throughput:last 	nan
attr source  sumPerDuration(packetBits(messageSent))
attr unit  bps
scalar LothianBusNet.bus[144].udp 	droppedPkBadChecksum:count 	0
attr interpolationmode  none
attr title  "packets dropped (checksum error), count"
scalar LothianBusNet.bus[144].udp 	droppedPkWrongPort:count 	0
attr interpolationmode  none
attr title  "packets dropped (wrong port), count"
scalar LothianBusNet.bus[144].udp 	passedUpPk:count 	0
attr interpolationmode  none
attr title  "packets passed up, count"
scalar LothianBusNet.bus[144].udp 	sentPk:count 	99
attr interpolationmode  none
attr source  sentPk
attr title  "packets sent, count"
scalar LothianBusNet.bus[144].udp 	sentPk:sum(packetBytes) 	792
attr interpolationmode  none
attr source  sentPk
attr title  "packets sent, sum(packetBytes)"
scalar LothianBusNet.bus[144].udp 	rcvdPk:count 	0
attr interpolationmode  none
attr source  rcvdPk
attr title  "packets received, count"
scalar LothianBusNet.bus[144].udp 	rcvdPk:sum(packetBytes) 	0
attr interpolationmode  none
attr source  rcvdPk
attr title  "packets received, sum(packetBytes)"
scalar LothianBusNet.bus[144].networkLayer.arp 	failedResolution:count 	32
attr title  "ARP failed resolutions, count"
scalar LothianBusNet.bus[144].networkLayer.arp 	initiatedResolution:count 	33
attr title  "ARP initiated resolutions, count"
scalar LothianBusNet.bus[144].networkLayer.arp 	sentReplies:count 	0
attr title  "ARP replies sent, count"
scalar LothianBusNet.bus[144].networkLayer.arp 	sentReq:count 	99
attr title  "ARP request sent, count"
scalar LothianBusNet.bus[144].wlan.agent 	dropConfirm:count 	394
attr title  "dropped confirms, count"
scalar LothianBusNet.bus[144].wlan.agent 	acceptConfirm:count 	0
attr title  "accepted confirms, count"
scalar LothianBusNet.bus[144].wlan.agent 	sentRequest:count 	395
attr title  "sent requests, count"
scalar LothianBusNet.bus[144].wlan.mgmt 	dropPkByQueue:count 	0
attr interpolationmode  none
attr source  dropPkByQueue
attr title  "packets dropped by queue, count"
scalar LothianBusNet.bus[144].wlan.mgmt 	dropPkByQueue:sum(packetBytes) 	0
attr interpolationmode  none
attr source  dropPkByQueue
attr title  "packets dropped by queue, sum(packetBytes)"
scalar LothianBusNet.bus[144].wlan.mgmt 	dataQueueLen:max 	0
attr interpolationmode  sample-hold
attr title  "data queue length, max"
scalar LothianBusNet.bus[144].wlan.mgmt 	dataQueueLen:timeavg 	0
attr interpolationmode  sample-hold
attr title  "data queue length, timeavg"
scalar LothianBusNet.bus[144].wlan.mac 	"number of received packets" 	0
scalar LothianBusNet.bus[144].wlan.mac 	"number of collisions" 	0
scalar LothianBusNet.bus[144].wlan.mac 	"number of internal collisions" 	0
scalar LothianBusNet.bus[144].wlan.mac 	"number of retry for AC 0" 	0
scalar LothianBusNet.bus[144].wlan.mac 	"sent and received bits" 	126400
scalar LothianBusNet.bus[144].wlan.mac 	"sent packet within AC 0" 	0
scalar LothianBusNet.bus[144].wlan.mac 	"sent in TXOP " 	0
scalar LothianBusNet.bus[144].wlan.mac 	"sentWithoutRetry AC 0" 	0
scalar LothianBusNet.bus[144].wlan.mac 	"numGivenUp AC 0" 	0
scalar LothianBusNet.bus[144].wlan.mac 	"numDropped AC 0" 	0
scalar LothianBusNet.bus[144].wlan.mac 	rcvdPkFromLL:count 	19
attr interpolationmode  none
attr source  packetReceivedFromLower
attr title  "packets received from lower layer, count"
scalar LothianBusNet.bus[144].wlan.mac 	rcvdPkFromLL:sum(packetBytes) 	760
attr interpolationmode  none
attr source  packetReceivedFromLower
attr title  "packets received from lower layer, sum(packetBytes)"
scalar LothianBusNet.bus[144].wlan.mac 	rcvdPkFromHL:count 	395
attr interpolationmode  none
attr source  packetReceivedFromUpper
attr title  "packets received from higher layer, count"
scalar LothianBusNet.bus[144].wlan.mac 	rcvdPkFromHL:sum(packetBytes) 	15800
attr interpolationmode  none
attr source  packetReceivedFromUpper
attr title  "packets received from higher layer, sum(packetBytes)"
scalar LothianBusNet.bus[144].wlan.mac 	sentDownPk:count 	395
attr interpolationmode  none
attr source  packetSentToLower
attr title  "packets sent to lower layer, count"
scalar LothianBusNet.bus[144].wlan.mac 	sentDownPk:sum(packetBytes) 	15800
attr interpolationmode  none
attr source  packetSentToLower
attr title  "packets sent to lower layer, sum(packetBytes)"
scalar LothianBusNet.bus[144].wlan.mac 	passedUpPk:count 	19
attr interpolationmode  none
attr source  packetSentToUpper
attr title  "packets passed to higher layer, count"
scalar LothianBusNet.bus[144].wlan.mac 	passedUpPk:sum(packetBytes) 	760
attr interpolationmode  none
attr source  packetSentToUpper
attr title  "packets passed to higher layer, sum(packetBytes)"
scalar LothianBusNet.bus[144].wlan.radio 	lossRate:min 	nan
attr interpolationmode  backward-sample-hold
attr title  "packet loss rate, min"
scalar LothianBusNet.bus[144].wlan.radio 	lossRate:max 	nan
attr interpolationmode  backward-sample-hold
attr title  "packet loss rate, max"
scalar LothianBusNet.bus[144].wlan.radio 	lossRate:timeavg 	nan
attr interpolationmode  backward-sample-hold
attr title  "packet loss rate, timeavg"
scalar LothianBusNet.bus[144].wlan.radio 	radioState:count 	829
attr interpolationmode  sample-hold
attr title  "radio state (enum), count"
statistic LothianBusNet.bus[144].wlan.radio 	channelNo:histogram
field count 1
field mean 0
field stddev nan
field sum 0
field sqrsum 0
field min 0
field max 0
attr interpolationmode  sample-hold
attr title  "channel no, histogram"
bin	-INF	0
bin	-0.5	0
bin	-0.46666666666667	0
bin	-0.43333333333333	0
bin	-0.4	0
bin	-0.36666666666667	0
bin	-0.33333333333333	0
bin	-0.3	0
bin	-0.26666666666667	0
bin	-0.23333333333333	0
bin	-0.2	0
bin	-0.16666666666667	0
bin	-0.13333333333333	0
bin	-0.1	0
bin	-0.066666666666667	0
bin	-0.033333333333333	0
bin	0	1
bin	0.033333333333333	0
bin	0.066666666666667	0
bin	0.1	0
bin	0.13333333333333	0
bin	0.16666666666667	0
bin	0.2	0
bin	0.23333333333333	0
bin	0.26666666666667	0
bin	0.3	0
bin	0.33333333333333	0
bin	0.36666666666667	0
bin	0.4	0
bin	0.43333333333333	0
bin	0.46666666666667	0
bin	0.5	0
scalar LothianBusNet.bus[144].wlan.radio 	bitrate:min 	54000000
attr interpolationmode  sample-hold
attr title  "tx bitrate, min"
attr unit  bps
scalar LothianBusNet.bus[144].wlan.radio 	bitrate:max 	54000000
attr interpolationmode  sample-hold
attr title  "tx bitrate, max"
attr unit  bps
scalar LothianBusNet.bus[144].wlan.radio 	bitrate:timeavg 	54000000
attr interpolationmode  sample-hold
attr title  "tx bitrate, timeavg"
attr unit  bps
